<?xml version="1.0" encoding="UTF-8"?>

<!-- generated on Sun Mar 21 21:21:18 2021 by Eclipse SUMO netconvert Version 1.8.0
<configuration xmlns:xsi="http://www.w3.org/2001/XMLSchema-instance" xsi:noNamespaceSchemaLocation="http://sumo.dlr.de/xsd/netconvertConfiguration.xsd">

    <input>
        <type-files value="/usr/local/opt/sumo/share/sumo/data/typemap/osmNetconvert.typ.xml"/>
        <osm-files value="osm_bbox.osm.xml"/>
    </input>

    <output>
        <output-file value="osm.net.xml"/>
        <output.street-names value="true"/>
        <output.original-names value="true"/>
    </output>

    <projection>
        <proj.utm value="true"/>
    </projection>

    <processing>
        <geometry.remove value="true"/>
        <roundabouts.guess value="true"/>
    </processing>

    <tls_building>
        <tls.discard-simple value="true"/>
        <tls.join value="true"/>
        <tls.guess-signals value="true"/>
        <tls.default-type value="actuated"/>
    </tls_building>

    <ramp_guessing>
        <ramps.guess value="true"/>
    </ramp_guessing>

    <edge_removal>
        <keep-edges.by-vclass value="passenger"/>
    </edge_removal>

    <junctions>
        <junctions.join value="true"/>
        <junctions.corner-detail value="5"/>
    </junctions>

    <report>
        <verbose value="true"/>
        <aggregate-warnings value="5"/>
    </report>

</configuration>
-->

<net version="1.6" junctionCornerDetail="5" limitTurnSpeed="5.50" xmlns:xsi="http://www.w3.org/2001/XMLSchema-instance" xsi:noNamespaceSchemaLocation="http://sumo.dlr.de/xsd/net_file.xsd">

    <location netOffset="-783492.84,-1426342.97" convBoundary="0.00,0.00,3011.23,3524.99" origBoundary="77.579883,12.816136,77.702195,13.000198" projParameter="+proj=utm +zone=43 +ellps=WGS84 +datum=WGS84 +units=m +no_defs"/>

    <type id="highway.bridleway" priority="1" numLanes="1" speed="2.78" allow="pedestrian" oneway="1" width="2.00"/>
    <type id="highway.bus_guideway" priority="1" numLanes="1" speed="27.78" allow="bus" oneway="1"/>
    <type id="highway.cycleway" priority="1" numLanes="1" speed="8.33" allow="bicycle" oneway="0" width="1.00"/>
    <type id="highway.footway" priority="1" numLanes="1" speed="2.78" allow="pedestrian" oneway="1" width="2.00"/>
    <type id="highway.ford" priority="1" numLanes="1" speed="2.78" allow="army" oneway="0"/>
    <type id="highway.living_street" priority="2" numLanes="1" speed="2.78" disallow="tram rail_urban rail rail_electric rail_fast ship" oneway="0"/>
    <type id="highway.motorway" priority="14" numLanes="2" speed="39.44" allow="private emergency authority army vip passenger hov taxi bus coach delivery truck trailer motorcycle evehicle custom1 custom2" oneway="1"/>
    <type id="highway.motorway_link" priority="9" numLanes="1" speed="22.22" allow="private emergency authority army vip passenger hov taxi bus coach delivery truck trailer motorcycle evehicle custom1 custom2" oneway="1"/>
    <type id="highway.path" priority="1" numLanes="1" speed="2.78" allow="pedestrian bicycle" oneway="0" width="2.00"/>
    <type id="highway.pedestrian" priority="1" numLanes="1" speed="2.78" allow="pedestrian" oneway="1" width="2.00"/>
    <type id="highway.primary" priority="12" numLanes="2" speed="27.78" disallow="tram rail_urban rail rail_electric rail_fast ship" oneway="0"/>
    <type id="highway.primary_link" priority="7" numLanes="1" speed="22.22" disallow="tram rail_urban rail rail_electric rail_fast ship" oneway="0"/>
    <type id="highway.raceway" priority="15" numLanes="2" speed="83.33" allow="vip" oneway="0"/>
    <type id="highway.residential" priority="3" numLanes="1" speed="13.89" disallow="tram rail_urban rail rail_electric rail_fast ship" oneway="0"/>
    <type id="highway.secondary" priority="11" numLanes="1" speed="27.78" disallow="tram rail_urban rail rail_electric rail_fast ship" oneway="0"/>
    <type id="highway.secondary_link" priority="6" numLanes="1" speed="22.22" disallow="tram rail_urban rail rail_electric rail_fast ship" oneway="0"/>
    <type id="highway.service" priority="1" numLanes="1" speed="5.56" allow="pedestrian delivery bicycle" oneway="0"/>
    <type id="highway.stairs" priority="1" numLanes="1" speed="1.39" allow="pedestrian" oneway="1" width="2.00"/>
    <type id="highway.step" priority="1" numLanes="1" speed="1.39" allow="pedestrian" oneway="1" width="2.00"/>
    <type id="highway.steps" priority="1" numLanes="1" speed="1.39" allow="pedestrian" oneway="1" width="2.00"/>
    <type id="highway.tertiary" priority="10" numLanes="1" speed="22.22" disallow="tram rail_urban rail rail_electric rail_fast ship" oneway="0"/>
    <type id="highway.tertiary_link" priority="5" numLanes="1" speed="22.22" disallow="tram rail_urban rail rail_electric rail_fast ship" oneway="0"/>
    <type id="highway.track" priority="1" numLanes="1" speed="5.56" allow="pedestrian motorcycle moped bicycle" oneway="0"/>
    <type id="highway.trunk" priority="13" numLanes="2" speed="27.78" disallow="pedestrian bicycle tram rail_urban rail rail_electric rail_fast ship" oneway="0"/>
    <type id="highway.trunk_link" priority="8" numLanes="1" speed="22.22" disallow="pedestrian bicycle tram rail_urban rail rail_electric rail_fast ship" oneway="0"/>
    <type id="highway.unclassified" priority="4" numLanes="1" speed="13.89" disallow="tram rail_urban rail rail_electric rail_fast ship" oneway="0"/>
    <type id="highway.unsurfaced" priority="1" numLanes="1" speed="8.33" disallow="tram rail_urban rail rail_electric rail_fast ship" oneway="0"/>
    <type id="railway.highspeed" priority="21" numLanes="1" speed="69.44" allow="rail_fast" oneway="1"/>
    <type id="railway.light_rail" priority="19" numLanes="1" speed="27.78" allow="rail_urban" oneway="1"/>
    <type id="railway.preserved" priority="16" numLanes="1" speed="27.78" allow="rail" oneway="1"/>
    <type id="railway.rail" priority="20" numLanes="1" speed="44.44" allow="rail" oneway="1"/>
    <type id="railway.subway" priority="18" numLanes="1" speed="27.78" allow="rail_urban" oneway="1"/>
    <type id="railway.tram" priority="17" numLanes="1" speed="13.89" allow="tram" oneway="1"/>

    <edge id=":1123386062_0" function="internal">
        <lane id=":1123386062_0_0" index="0" disallow="pedestrian bicycle tram rail_urban rail rail_electric rail_fast ship" speed="12.50" length="19.54" shape="1046.44,3078.54 1040.65,3075.74 1036.43,3072.89 1033.04,3070.35 1029.75,3068.47"/>
    </edge>
    <edge id=":1123386062_1" function="internal">
        <lane id=":1123386062_1_0" index="0" disallow="pedestrian bicycle tram rail_urban rail rail_electric rail_fast ship" speed="11.11" length="19.63" shape="1049.08,3068.66 1042.73,3069.78 1037.61,3070.06 1033.40,3069.60 1029.75,3068.47"/>
    </edge>
    <edge id=":1377861104_0" function="internal">
        <lane id=":1377861104_0_0" index="0" disallow="tram rail_urban rail rail_electric rail_fast ship" speed="3.65" length="4.67" shape="2311.57,3145.85 2312.95,3146.29 2313.56,3146.95 2313.39,3147.83 2312.46,3148.93"/>
    </edge>
    <edge id=":1417443722_0" function="internal">
        <lane id=":1417443722_0_0" index="0" disallow="tram rail_urban rail rail_electric rail_fast ship" speed="11.79" length="11.91" shape="1396.33,2652.43 1395.90,2649.30 1396.11,2646.82 1397.07,2644.35 1398.88,2641.23"/>
    </edge>
    <edge id=":1417443722_1" function="internal">
        <lane id=":1417443722_1_0" index="0" disallow="tram rail_urban rail rail_electric rail_fast ship" speed="3.65" length="4.67" shape="1396.33,2652.43 1396.89,2651.10 1397.59,2650.56 1398.46,2650.80 1399.47,2651.82"/>
    </edge>
    <edge id=":1417443722_2" function="internal">
        <lane id=":1417443722_2_0" index="0" disallow="tram rail_urban rail rail_electric rail_fast ship" speed="11.11" length="12.34" shape="1389.61,2649.98 1396.17,2639.54"/>
        <lane id=":1417443722_2_1" index="1" disallow="tram rail_urban rail rail_electric rail_fast ship" speed="11.11" length="12.34" shape="1392.32,2651.68 1398.88,2641.23"/>
    </edge>
    <edge id=":1417443722_4" function="internal">
        <lane id=":1417443722_4_0" index="0" disallow="tram rail_urban rail rail_electric rail_fast ship" speed="5.90" length="11.75" shape="1392.32,2651.68 1394.81,2648.45 1396.83,2647.40 1398.38,2648.52 1399.47,2651.82"/>
    </edge>
    <edge id=":1417443734_0" function="internal">
        <lane id=":1417443734_0_0" index="0" disallow="tram rail_urban rail rail_electric rail_fast ship" speed="6.40" length="9.04" shape="1617.29,2701.56 1616.43,2699.22 1615.03,2697.76 1613.09,2697.18 1610.61,2697.47"/>
    </edge>
    <edge id=":1417443734_1" function="internal">
        <lane id=":1417443734_1_0" index="0" disallow="tram rail_urban rail rail_electric rail_fast ship" speed="13.89" length="14.38" shape="1617.29,2701.56 1614.39,2687.47"/>
    </edge>
    <edge id=":1417443734_2" function="internal">
        <lane id=":1417443734_2_0" index="0" disallow="tram rail_urban rail rail_electric rail_fast ship" speed="3.65" length="2.34" shape="1617.29,2701.56 1617.82,2700.22 1618.52,2699.66"/>
    </edge>
    <edge id=":1417443734_9" function="internal">
        <lane id=":1417443734_9_0" index="0" disallow="tram rail_urban rail rail_electric rail_fast ship" speed="3.65" length="2.34" shape="1618.52,2699.66 1619.39,2699.89 1620.42,2700.89"/>
    </edge>
    <edge id=":1417443734_3" function="internal">
        <lane id=":1417443734_3_0" index="0" disallow="tram rail_urban rail rail_electric rail_fast ship" speed="13.89" length="14.33" shape="1617.53,2686.85 1620.42,2700.89"/>
    </edge>
    <edge id=":1417443734_4" function="internal">
        <lane id=":1417443734_4_0" index="0" disallow="tram rail_urban rail rail_electric rail_fast ship" speed="8.22" length="5.74" shape="1617.53,2686.85 1617.71,2690.64 1617.05,2692.47"/>
    </edge>
    <edge id=":1417443734_5" function="internal">
        <lane id=":1417443734_5_0" index="0" disallow="tram rail_urban rail rail_electric rail_fast ship" speed="3.65" length="2.34" shape="1617.53,2686.85 1616.98,2688.19 1616.27,2688.73"/>
    </edge>
    <edge id=":1417443734_10" function="internal">
        <lane id=":1417443734_10_0" index="0" disallow="tram rail_urban rail rail_electric rail_fast ship" speed="8.22" length="8.51" shape="1617.05,2692.47 1616.62,2693.67 1614.25,2695.95 1610.61,2697.47"/>
    </edge>
    <edge id=":1417443734_11" function="internal">
        <lane id=":1417443734_11_0" index="0" disallow="tram rail_urban rail rail_electric rail_fast ship" speed="3.65" length="2.34" shape="1616.27,2688.73 1615.41,2688.50 1614.39,2687.47"/>
    </edge>
    <edge id=":1417443734_6" function="internal">
        <lane id=":1417443734_6_0" index="0" disallow="tram rail_urban rail rail_electric rail_fast ship" speed="6.76" length="9.33" shape="1609.78,2694.38 1612.20,2693.38 1613.77,2691.90 1614.50,2689.93 1614.39,2687.47"/>
    </edge>
    <edge id=":1417443734_7" function="internal">
        <lane id=":1417443734_7_0" index="0" disallow="tram rail_urban rail rail_electric rail_fast ship" speed="7.91" length="14.39" shape="1609.78,2694.38 1613.73,2693.91 1616.81,2694.84 1619.04,2697.17 1620.42,2700.89"/>
    </edge>
    <edge id=":1417443734_8" function="internal">
        <lane id=":1417443734_8_0" index="0" disallow="tram rail_urban rail rail_electric rail_fast ship" speed="3.65" length="4.67" shape="1609.78,2694.38 1611.15,2694.84 1611.74,2695.51 1611.56,2696.39 1610.61,2697.47"/>
    </edge>
    <edge id=":1417443741_0" function="internal">
        <lane id=":1417443741_0_0" index="0" disallow="tram rail_urban rail rail_electric rail_fast ship" speed="6.46" length="9.03" shape="1554.66,2718.28 1553.72,2715.98 1552.27,2714.55 1550.32,2714.00 1547.85,2714.31"/>
    </edge>
    <edge id=":1417443741_1" function="internal">
        <lane id=":1417443741_1_0" index="0" disallow="tram rail_urban rail rail_electric rail_fast ship" speed="8.05" length="14.23" shape="1554.66,2718.28 1554.24,2714.38 1555.15,2711.28 1557.38,2708.97 1560.94,2707.44"/>
    </edge>
    <edge id=":1417443741_2" function="internal">
        <lane id=":1417443741_2_0" index="0" disallow="tram rail_urban rail rail_electric rail_fast ship" speed="3.65" length="4.67" shape="1554.66,2718.28 1555.15,2716.92 1555.82,2716.34 1556.70,2716.53 1557.77,2717.50"/>
    </edge>
    <edge id=":1417443741_3" function="internal">
        <lane id=":1417443741_3_0" index="0" disallow="tram rail_urban rail rail_electric rail_fast ship" speed="6.57" length="9.13" shape="1561.76,2710.54 1559.49,2711.51 1558.07,2713.00 1557.49,2714.99 1557.77,2717.50"/>
    </edge>
    <edge id=":1417443741_4" function="internal">
        <lane id=":1417443741_4_0" index="0" disallow="tram rail_urban rail rail_electric rail_fast ship" speed="13.89" length="14.41" shape="1561.76,2710.54 1547.85,2714.31"/>
    </edge>
    <edge id=":1417443741_5" function="internal">
        <lane id=":1417443741_5_0" index="0" disallow="tram rail_urban rail rail_electric rail_fast ship" speed="3.65" length="2.34" shape="1561.76,2710.54 1560.40,2710.07 1559.80,2709.40"/>
    </edge>
    <edge id=":1417443741_9" function="internal">
        <lane id=":1417443741_9_0" index="0" disallow="tram rail_urban rail rail_electric rail_fast ship" speed="3.65" length="2.34" shape="1559.80,2709.40 1559.98,2708.53 1560.94,2707.44"/>
    </edge>
    <edge id=":1417443741_6" function="internal">
        <lane id=":1417443741_6_0" index="0" disallow="tram rail_urban rail rail_electric rail_fast ship" speed="13.89" length="14.43" shape="1547.01,2711.22 1560.94,2707.44"/>
    </edge>
    <edge id=":1417443741_7" function="internal">
        <lane id=":1417443741_7_0" index="0" disallow="tram rail_urban rail rail_electric rail_fast ship" speed="7.96" length="5.97" shape="1547.01,2711.22 1550.90,2710.73 1552.87,2711.29"/>
    </edge>
    <edge id=":1417443741_8" function="internal">
        <lane id=":1417443741_8_0" index="0" disallow="tram rail_urban rail rail_electric rail_fast ship" speed="3.65" length="2.34" shape="1547.01,2711.22 1548.37,2711.67 1548.97,2712.34"/>
    </edge>
    <edge id=":1417443741_10" function="internal">
        <lane id=":1417443741_10_0" index="0" disallow="tram rail_urban rail rail_electric rail_fast ship" speed="7.96" length="8.31" shape="1552.87,2711.29 1553.99,2711.61 1556.28,2713.87 1557.77,2717.50"/>
    </edge>
    <edge id=":1417443741_11" function="internal">
        <lane id=":1417443741_11_0" index="0" disallow="tram rail_urban rail rail_electric rail_fast ship" speed="3.65" length="2.34" shape="1548.97,2712.34 1548.80,2713.22 1547.85,2714.31"/>
    </edge>
    <edge id=":1417443749_0" function="internal">
        <lane id=":1417443749_0_0" index="0" disallow="tram rail_urban rail rail_electric rail_fast ship" speed="6.08" length="7.78" shape="1417.50,2731.04 1415.37,2731.15 1413.72,2730.55 1412.54,2729.24 1411.85,2727.23"/>
    </edge>
    <edge id=":1417443749_1" function="internal">
        <lane id=":1417443749_1_0" index="0" disallow="tram rail_urban rail rail_electric rail_fast ship" speed="3.90" length="2.59" shape="1415.00,2726.63 1415.23,2727.30 1415.62,2727.73 1416.17,2727.93 1416.88,2727.90"/>
    </edge>
    <edge id=":1417443754_0" function="internal">
        <lane id=":1417443754_0_0" index="0" disallow="tram rail_urban rail rail_electric rail_fast ship" speed="13.89" length="14.65" shape="1638.15,2759.96 1623.53,2760.96"/>
    </edge>
    <edge id=":1417443754_1" function="internal">
        <lane id=":1417443754_1_0" index="0" disallow="tram rail_urban rail rail_electric rail_fast ship" speed="8.47" length="5.91" shape="1638.15,2759.96 1634.43,2759.72 1632.47,2758.75"/>
    </edge>
    <edge id=":1417443754_2" function="internal">
        <lane id=":1417443754_2_0" index="0" disallow="tram rail_urban rail rail_electric rail_fast ship" speed="3.65" length="2.34" shape="1638.15,2759.96 1636.88,2759.27 1636.41,2758.51"/>
    </edge>
    <edge id=":1417443754_9" function="internal">
        <lane id=":1417443754_9_0" index="0" disallow="tram rail_urban rail rail_electric rail_fast ship" speed="8.47" length="8.61" shape="1632.47,2758.75 1631.51,2758.27 1629.37,2755.60 1628.01,2751.72"/>
    </edge>
    <edge id=":1417443754_10" function="internal">
        <lane id=":1417443754_10_0" index="0" disallow="tram rail_urban rail rail_electric rail_fast ship" speed="3.65" length="2.34" shape="1636.41,2758.51 1636.74,2757.68 1637.86,2756.77"/>
    </edge>
    <edge id=":1417443754_3" function="internal">
        <lane id=":1417443754_3_0" index="0" disallow="tram rail_urban rail rail_electric rail_fast ship" speed="7.06" length="9.80" shape="1631.14,2751.05 1632.06,2753.73 1633.49,2755.58 1635.42,2756.60 1637.86,2756.77"/>
    </edge>
    <edge id=":1417443754_4" function="internal">
        <lane id=":1417443754_4_0" index="0" disallow="tram rail_urban rail rail_electric rail_fast ship" speed="7.74" length="14.84" shape="1631.14,2751.05 1631.42,2755.20 1630.25,2758.24 1627.62,2760.16 1623.53,2760.96"/>
    </edge>
    <edge id=":1417443754_5" function="internal">
        <lane id=":1417443754_5_0" index="0" disallow="tram rail_urban rail rail_electric rail_fast ship" speed="3.65" length="4.67" shape="1631.14,2751.05 1630.61,2752.39 1629.91,2752.95 1629.05,2752.72 1628.01,2751.72"/>
    </edge>
    <edge id=":1417443754_6" function="internal">
        <lane id=":1417443754_6_0" index="0" disallow="tram rail_urban rail rail_electric rail_fast ship" speed="6.19" length="9.05" shape="1623.37,2757.76 1625.86,2757.27 1627.47,2756.10 1628.18,2754.25 1628.01,2751.72"/>
    </edge>
    <edge id=":1417443754_7" function="internal">
        <lane id=":1417443754_7_0" index="0" disallow="tram rail_urban rail rail_electric rail_fast ship" speed="13.89" length="14.53" shape="1623.37,2757.76 1637.86,2756.77"/>
    </edge>
    <edge id=":1417443754_8" function="internal">
        <lane id=":1417443754_8_0" index="0" disallow="tram rail_urban rail rail_electric rail_fast ship" speed="3.65" length="2.34" shape="1623.37,2757.76 1624.61,2758.50 1625.05,2759.28"/>
    </edge>
    <edge id=":1417443754_11" function="internal">
        <lane id=":1417443754_11_0" index="0" disallow="tram rail_urban rail rail_electric rail_fast ship" speed="3.65" length="2.34" shape="1625.05,2759.28 1624.69,2760.10 1623.53,2760.96"/>
    </edge>
    <edge id=":1471712317_0" function="internal">
        <lane id=":1471712317_0_0" index="0" disallow="tram rail_urban rail rail_electric rail_fast ship" speed="13.89" length="14.40" shape="1959.00,3220.03 1955.66,3206.03"/>
    </edge>
    <edge id=":1471712317_1" function="internal">
        <lane id=":1471712317_1_0" index="0" disallow="tram rail_urban rail rail_electric rail_fast ship" speed="8.14" length="5.85" shape="1959.00,3220.03 1958.66,3216.22 1959.28,3214.30"/>
    </edge>
    <edge id=":1471712317_2" function="internal">
        <lane id=":1471712317_2_0" index="0" disallow="tram rail_urban rail rail_electric rail_fast ship" speed="3.65" length="2.34" shape="1959.00,3220.03 1959.50,3218.68 1960.19,3218.11"/>
    </edge>
    <edge id=":1471712317_9" function="internal">
        <lane id=":1471712317_9_0" index="0" disallow="tram rail_urban rail rail_electric rail_fast ship" speed="8.14" length="8.40" shape="1959.28,3214.30 1959.64,3213.15 1961.93,3210.83 1965.54,3209.26"/>
    </edge>
    <edge id=":1471712317_10" function="internal">
        <lane id=":1471712317_10_0" index="0" disallow="tram rail_urban rail rail_electric rail_fast ship" speed="3.65" length="2.34" shape="1960.19,3218.11 1961.06,3218.31 1962.11,3219.29"/>
    </edge>
    <edge id=":1471712317_3" function="internal">
        <lane id=":1471712317_3_0" index="0" disallow="tram rail_urban rail rail_electric rail_fast ship" speed="6.67" length="9.24" shape="1966.41,3212.34 1964.05,3213.36 1962.55,3214.86 1961.90,3216.84 1962.11,3219.29"/>
    </edge>
    <edge id=":1471712317_4" function="internal">
        <lane id=":1471712317_4_0" index="0" disallow="tram rail_urban rail rail_electric rail_fast ship" speed="7.93" length="14.35" shape="1966.41,3212.34 1962.49,3212.86 1959.39,3211.98 1957.12,3209.70 1955.66,3206.03"/>
    </edge>
    <edge id=":1471712317_5" function="internal">
        <lane id=":1471712317_5_0" index="0" disallow="tram rail_urban rail rail_electric rail_fast ship" speed="3.65" length="4.67" shape="1966.41,3212.34 1965.04,3211.89 1964.44,3211.23 1964.60,3210.35 1965.54,3209.26"/>
    </edge>
    <edge id=":1471712317_6" function="internal">
        <lane id=":1471712317_6_0" index="0" disallow="tram rail_urban rail rail_electric rail_fast ship" speed="6.42" length="9.04" shape="1958.77,3205.28 1959.69,3207.60 1961.12,3209.03 1963.07,3209.58 1965.54,3209.26"/>
    </edge>
    <edge id=":1471712317_7" function="internal">
        <lane id=":1471712317_7_0" index="0" disallow="tram rail_urban rail rail_electric rail_fast ship" speed="13.89" length="14.40" shape="1958.77,3205.28 1962.11,3219.29"/>
    </edge>
    <edge id=":1471712317_8" function="internal">
        <lane id=":1471712317_8_0" index="0" disallow="tram rail_urban rail rail_electric rail_fast ship" speed="3.65" length="2.34" shape="1958.77,3205.28 1958.27,3206.64 1957.59,3207.21"/>
    </edge>
    <edge id=":1471712317_11" function="internal">
        <lane id=":1471712317_11_0" index="0" disallow="tram rail_urban rail rail_electric rail_fast ship" speed="3.65" length="2.34" shape="1957.59,3207.21 1956.72,3207.01 1955.66,3206.03"/>
    </edge>
    <edge id=":1471713318_0" function="internal">
        <lane id=":1471713318_0_0" index="0" disallow="tram rail_urban rail rail_electric rail_fast ship" speed="13.89" length="14.43" shape="1793.73,3266.84 1790.28,3252.83"/>
    </edge>
    <edge id=":1471713318_1" function="internal">
        <lane id=":1471713318_1_0" index="0" disallow="tram rail_urban rail rail_electric rail_fast ship" speed="8.11" length="5.89" shape="1793.73,3266.84 1793.35,3263.02 1793.95,3261.06"/>
    </edge>
    <edge id=":1471713318_2" function="internal">
        <lane id=":1471713318_2_0" index="0" disallow="tram rail_urban rail rail_electric rail_fast ship" speed="3.65" length="2.34" shape="1793.73,3266.84 1794.21,3265.48 1794.89,3264.90"/>
    </edge>
    <edge id=":1471713318_9" function="internal">
        <lane id=":1471713318_9_0" index="0" disallow="tram rail_urban rail rail_electric rail_fast ship" speed="8.11" length="8.36" shape="1793.95,3261.06 1794.30,3259.94 1796.57,3257.61 1800.18,3256.03"/>
    </edge>
    <edge id=":1471713318_10" function="internal">
        <lane id=":1471713318_10_0" index="0" disallow="tram rail_urban rail rail_electric rail_fast ship" speed="3.65" length="2.34" shape="1794.89,3264.90 1795.77,3265.10 1796.83,3266.07"/>
    </edge>
    <edge id=":1471713318_3" function="internal">
        <lane id=":1471713318_3_0" index="0" disallow="tram rail_urban rail rail_electric rail_fast ship" speed="6.64" length="9.21" shape="1801.05,3259.11 1798.70,3260.14 1797.22,3261.64 1796.59,3263.61 1796.83,3266.07"/>
    </edge>
    <edge id=":1471713318_4" function="internal">
        <lane id=":1471713318_4_0" index="0" disallow="tram rail_urban rail rail_electric rail_fast ship" speed="7.94" length="14.34" shape="1801.05,3259.11 1797.13,3259.64 1794.03,3258.76 1791.75,3256.49 1790.28,3252.83"/>
    </edge>
    <edge id=":1471713318_5" function="internal">
        <lane id=":1471713318_5_0" index="0" disallow="tram rail_urban rail rail_electric rail_fast ship" speed="3.65" length="4.67" shape="1801.05,3259.11 1799.67,3258.67 1799.07,3258.01 1799.24,3257.13 1800.18,3256.03"/>
    </edge>
    <edge id=":1471713318_6" function="internal">
        <lane id=":1471713318_6_0" index="0" disallow="tram rail_urban rail rail_electric rail_fast ship" speed="6.43" length="9.03" shape="1793.39,3252.07 1794.32,3254.38 1795.76,3255.81 1797.71,3256.36 1800.18,3256.03"/>
    </edge>
    <edge id=":1471713318_7" function="internal">
        <lane id=":1471713318_7_0" index="0" disallow="tram rail_urban rail rail_electric rail_fast ship" speed="13.89" length="14.41" shape="1793.39,3252.07 1796.83,3266.07"/>
    </edge>
    <edge id=":1471713318_8" function="internal">
        <lane id=":1471713318_8_0" index="0" disallow="tram rail_urban rail rail_electric rail_fast ship" speed="3.65" length="2.34" shape="1793.39,3252.07 1792.90,3253.43 1792.21,3254.01"/>
    </edge>
    <edge id=":1471713318_11" function="internal">
        <lane id=":1471713318_11_0" index="0" disallow="tram rail_urban rail rail_electric rail_fast ship" speed="3.65" length="2.34" shape="1792.21,3254.01 1791.34,3253.81 1790.28,3252.83"/>
    </edge>
    <edge id=":1471713319_0" function="internal">
        <lane id=":1471713319_0_0" index="0" disallow="tram rail_urban rail rail_electric rail_fast ship" speed="6.40" length="9.04" shape="1928.69,3228.91 1927.79,3226.58 1926.36,3225.14 1924.42,3224.59 1921.94,3224.92"/>
    </edge>
    <edge id=":1471713319_1" function="internal">
        <lane id=":1471713319_1_0" index="0" disallow="tram rail_urban rail rail_electric rail_fast ship" speed="13.89" length="14.41" shape="1928.69,3228.91 1925.43,3214.87"/>
    </edge>
    <edge id=":1471713319_2" function="internal">
        <lane id=":1471713319_2_0" index="0" disallow="tram rail_urban rail rail_electric rail_fast ship" speed="3.65" length="2.34" shape="1928.69,3228.91 1929.20,3227.56 1929.89,3226.99"/>
    </edge>
    <edge id=":1471713319_9" function="internal">
        <lane id=":1471713319_9_0" index="0" disallow="tram rail_urban rail rail_electric rail_fast ship" speed="3.65" length="2.34" shape="1929.89,3226.99 1930.76,3227.20 1931.81,3228.19"/>
    </edge>
    <edge id=":1471713319_3" function="internal">
        <lane id=":1471713319_3_0" index="0" disallow="tram rail_urban rail rail_electric rail_fast ship" speed="13.89" length="14.42" shape="1928.55,3214.14 1931.81,3228.19"/>
    </edge>
    <edge id=":1471713319_4" function="internal">
        <lane id=":1471713319_4_0" index="0" disallow="tram rail_urban rail rail_electric rail_fast ship" speed="8.16" length="5.86" shape="1928.55,3214.14 1928.86,3217.95 1928.24,3219.89"/>
    </edge>
    <edge id=":1471713319_5" function="internal">
        <lane id=":1471713319_5_0" index="0" disallow="tram rail_urban rail rail_electric rail_fast ship" speed="3.65" length="2.34" shape="1928.55,3214.14 1928.04,3215.49 1927.35,3216.06"/>
    </edge>
    <edge id=":1471713319_10" function="internal">
        <lane id=":1471713319_10_0" index="0" disallow="tram rail_urban rail rail_electric rail_fast ship" speed="8.16" length="8.41" shape="1928.24,3219.89 1927.87,3221.01 1925.56,3223.34 1921.94,3224.92"/>
    </edge>
    <edge id=":1471713319_11" function="internal">
        <lane id=":1471713319_11_0" index="0" disallow="tram rail_urban rail rail_electric rail_fast ship" speed="3.65" length="2.34" shape="1927.35,3216.06 1926.48,3215.85 1925.43,3214.87"/>
    </edge>
    <edge id=":1471713319_6" function="internal">
        <lane id=":1471713319_6_0" index="0" disallow="tram rail_urban rail rail_electric rail_fast ship" speed="6.69" length="9.28" shape="1921.07,3221.84 1923.45,3220.81 1924.97,3219.30 1925.63,3217.32 1925.43,3214.87"/>
    </edge>
    <edge id=":1471713319_7" function="internal">
        <lane id=":1471713319_7_0" index="0" disallow="tram rail_urban rail rail_electric rail_fast ship" speed="7.92" length="14.38" shape="1921.07,3221.84 1925.01,3221.31 1928.11,3222.19 1930.37,3224.49 1931.81,3228.19"/>
    </edge>
    <edge id=":1471713319_8" function="internal">
        <lane id=":1471713319_8_0" index="0" disallow="tram rail_urban rail rail_electric rail_fast ship" speed="3.65" length="4.67" shape="1921.07,3221.84 1922.45,3222.28 1923.05,3222.94 1922.88,3223.82 1921.94,3224.92"/>
    </edge>
    <edge id=":1471713369_0" function="internal">
        <lane id=":1471713369_0_0" index="0" disallow="tram rail_urban rail rail_electric rail_fast ship" speed="6.39" length="9.04" shape="1936.64,3263.34 1935.73,3261.01 1934.31,3259.58 1932.36,3259.04 1929.89,3259.39"/>
    </edge>
    <edge id=":1471713369_1" function="internal">
        <lane id=":1471713369_1_0" index="0" disallow="tram rail_urban rail rail_electric rail_fast ship" speed="13.89" length="14.41" shape="1936.64,3263.34 1933.40,3249.30"/>
    </edge>
    <edge id=":1471713369_2" function="internal">
        <lane id=":1471713369_2_0" index="0" disallow="tram rail_urban rail rail_electric rail_fast ship" speed="3.65" length="2.34" shape="1936.64,3263.34 1937.15,3261.99 1937.84,3261.42"/>
    </edge>
    <edge id=":1471713369_9" function="internal">
        <lane id=":1471713369_9_0" index="0" disallow="tram rail_urban rail rail_electric rail_fast ship" speed="3.65" length="2.34" shape="1937.84,3261.42 1938.71,3261.63 1939.75,3262.62"/>
    </edge>
    <edge id=":1471713369_3" function="internal">
        <lane id=":1471713369_3_0" index="0" disallow="tram rail_urban rail rail_electric rail_fast ship" speed="13.89" length="14.41" shape="1936.51,3248.58 1939.75,3262.62"/>
    </edge>
    <edge id=":1471713369_4" function="internal">
        <lane id=":1471713369_4_0" index="0" disallow="tram rail_urban rail rail_electric rail_fast ship" speed="8.19" length="5.83" shape="1936.51,3248.58 1936.82,3252.38 1936.19,3254.30"/>
    </edge>
    <edge id=":1471713369_5" function="internal">
        <lane id=":1471713369_5_0" index="0" disallow="tram rail_urban rail rail_electric rail_fast ship" speed="3.65" length="2.34" shape="1936.51,3248.58 1936.00,3249.93 1935.31,3250.50"/>
    </edge>
    <edge id=":1471713369_10" function="internal">
        <lane id=":1471713369_10_0" index="0" disallow="tram rail_urban rail rail_electric rail_fast ship" speed="8.19" length="8.45" shape="1936.19,3254.30 1935.82,3255.44 1933.51,3257.78 1929.89,3259.39"/>
    </edge>
    <edge id=":1471713369_11" function="internal">