<?xml version="1.0" encoding="UTF-8"?>

<!-- generated on Sun Mar 21 21:21:19 2021 by Eclipse SUMO polyconvert Version 1.8.0
<configuration xmlns:xsi="http://www.w3.org/2001/XMLSchema-instance" xsi:noNamespaceSchemaLocation="http://sumo.dlr.de/xsd/polyconvertConfiguration.xsd">

    <input>
        <net-file value="osm.net.xml"/>
        <osm-files value="osm_bbox.osm.xml"/>
        <osm.keep-full-type value="true"/>
        <type-file value="/usr/local/opt/sumo/share/sumo/data/typemap/osmPolyconvert.typ.xml"/>
    </input>

    <output>
        <output-file value="osm.poly.xml"/>
    </output>

    <processing>
        <poi-layer-offset value="5"/>
    </processing>

    <report>
        <verbose value="true"/>
    </report>

</configuration>
-->

<additional xmlns:xsi="http://www.w3.org/2001/XMLSchema-instance" xsi:noNamespaceSchemaLocation="http://sumo.dlr.de/xsd/additional_file.xsd">
    <location netOffset="-783492.84,-1426342.97" convBoundary="-3552.71,-8017.57,9675.15,12345.72" origBoundary="77.579883,12.816136,77.702195,13.000198" projParameter="+proj=utm +zone=43 +ellps=WGS84 +datum=WGS84 +units=m +no_defs"/>

    <poly id="123629004" type="building.yes" color="255,230,230" fill="1" layer="-1.00" shape="1925.993152,3325.584966 1930.647594,3340.788001 1946.169922,3336.109726 1941.515600,3320.895619 1925.993152,3325.584966"/>
    <poly id="123629005" type="building.yes" color="255,230,230" fill="1" layer="-1.00" shape="1914.244645,3360.368916 1918.678229,3374.872252 1933.176588,3370.504496 1928.732266,3355.989976 1914.244645,3360.368916"/>
    <poly id="123629019" type="building.yes" color="255,230,230" fill="1" layer="-1.00" shape="1984.529346,3307.090013 1989.541223,3323.436975 2006.359887,3318.362448 2001.358990,3302.004523 1984.529346,3307.090013"/>
    <poly id="123629020" type="building.yes" color="255,230,230" fill="1" layer="-1.00" shape="1886.618154,3337.191823 1891.387731,3352.816700 1906.125765,3348.373898 1901.334592,3332.737724 1886.618154,3337.191823"/>
    <poly id="123629024" type="building.yes" color="255,230,230" fill="1" layer="-1.00" shape="1807.058258,3359.976696 1811.639360,3374.924329 1826.126946,3370.545340 1821.545737,3355.608772 1807.058258,3359.976696"/>
    <poly id="123629038" type="building.yes" color="255,230,230" fill="1" layer="-1.00" shape="1973.401197,3342.788092 1978.076644,3358.057777 1993.729727,3353.336592 1989.065259,3338.055945 1973.401197,3342.788092"/>
    <poly id="123629050" type="building.yes" color="255,230,230" fill="1" layer="-1.00" shape="1906.233308,3331.559235 1910.950747,3346.973246 1925.438373,3342.594303 1920.731799,3327.180399 1906.233308,3331.559235"/>
    <poly id="123629060" type="building.yes" color="255,230,230" fill="1" layer="-1.00" shape="1867.887113,3343.442368 1872.331582,3357.945802 1886.819079,3353.577910 1882.385587,3339.063514 1867.887113,3343.442368"/>
    <poly id="123629064" type="building.yes" color="255,230,230" fill="1" layer="-1.00" shape="1786.419553,3365.886664 1790.926589,3380.645337 1805.838765,3376.159995 1801.321104,3361.379069 1786.419553,3365.886664"/>
    <poly id="123629066" type="building.yes" color="255,230,230" fill="1" layer="-1.00" shape="1834.995275,3382.525885 1839.586532,3397.540052 1855.294185,3392.786148 1850.713679,3377.783157 1834.995275,3382.525885"/>
    <poly id="123629067" type="building.yes" color="255,230,230" fill="1" layer="-1.00" shape="1894.832512,3366.324618 1898.920068,3379.628804 1913.407562,3375.260927 1909.330982,3361.945780 1894.832512,3366.324618"/>
    <poly id="123629084" type="building.yes" color="255,230,230" fill="1" layer="-1.00" shape="1964.971620,3314.527600 1969.783571,3330.252567 1984.281965,3325.884831 1979.459276,3310.148680 1964.971620,3314.527600"/>
    <poly id="123629085" type="building.yes" color="255,230,230" fill="1" layer="-1.00" shape="1953.806378,3348.553686 1958.250804,3363.057143 1972.738321,3358.689293 1968.304873,3344.174875 1953.806378,3348.553686"/>
    <poly id="123629117" type="building.yes" color="255,230,230" fill="1" layer="-1.00" shape="1814.924030,3388.164900 1819.703920,3403.845216 1834.768785,3399.295037 1829.977930,3383.625674 1814.924030,3388.164900"/>
    <poly id="123629126" type="building.yes" color="255,230,230" fill="1" layer="-1.00" shape="1874.636624,3371.408801 1879.070110,3385.923196 1895.583772,3380.934043 1891.150292,3366.419644 1874.636624,3371.408801"/>
    <poly id="123629141" type="building.yes" color="255,230,230" fill="1" layer="-1.00" shape="1847.471444,3348.778932 1851.904950,3363.293319 1867.917558,3358.453986 1863.473201,3343.939484 1847.471444,3348.778932"/>
    <poly id="123629153" type="building.yes" color="255,230,230" fill="1" layer="-1.00" shape="1946.773260,3320.717149 1951.206839,3335.220492 1965.389434,3330.938066 1960.966719,3316.434831 1946.773260,3320.717149"/>
    <poly id="123629158" type="building.yes" color="255,230,230" fill="1" layer="-1.00" shape="1934.172629,3354.938829 1938.280409,3368.387145 1952.778890,3364.008329 1948.660258,3350.559897 1934.172629,3354.938829"/>
    <poly id="123629176" type="building.yes" color="255,230,230" fill="1" layer="-1.00" shape="1827.024068,3355.089368 1831.457582,3369.603750 1846.370002,3365.096289 1841.936380,3350.592972 1827.024068,3355.089368"/>
    <poly id="123629198" type="building.yes" color="255,230,230" fill="1" layer="-1.00" shape="1854.824585,3377.183296 1859.258534,3391.653409 1874.029342,3387.188791 1869.606257,3372.718785 1854.824585,3377.183296"/>
    <poly id="128220238" type="building.yes" color="255,230,230" fill="1" layer="-1.00" shape="991.165698,3014.745158 1005.344194,3019.340509 1008.752112,3008.914043 1027.595473,3015.018423 1024.837937,3023.436768 1024.098190,3025.687519 1036.956189,3029.859772 1047.683102,2997.168542 1034.911612,2993.030382 1032.131563,3001.525987 1013.721043,2995.569949 1017.206897,2984.956087 1002.487180,2980.189140 991.165698,3014.745158"/>
    <poly id="128220279" type="leisure.park" color="207,245,201" fill="1" layer="-2.00" shape="1884.496069,2818.361177 1951.049397,2813.420790 1949.464805,2875.730236 1888.101829,2880.723883 1884.496069,2818.361177"/>
    <poly id="164044984" type="building.office" color="255,230,230" fill="1" layer="-1.00" shape="1134.766779,2810.154250 1217.897846,2782.267248 1195.909709,2718.454689 1113.694356,2750.225741 1134.766779,2810.154250"/>
    <poly id="201072740" type="leisure.park" color="207,245,201" fill="1" layer="-2.00" shape="674.597062,3028.754105 772.356133,3041.012163 679.048044,3049.058051 674.597062,3028.754105"/>
    <poly id="218039389" type="waterway.drain" color="181,209,209" fill="0" layer="-4.00" shape="1327.081842,3116.699471 1362.494625,3117.660205 1421.584891,3113.948517 1725.017661,3025.620408 1774.405157,3021.422392"/>
    <poly id="230188170" type="waterway.drain" color="181,209,209" fill="0" layer="-4.00" shape="1135.809876,3081.573546 1152.375872,3085.252466"/>
    <poly id="230188171" type="waterway.drain" color="181,209,209" fill="0" layer="-4.00" shape="-1330.235625,3695.921190 -1306.386286,3698.775964 -1263.979564,3710.199299 -1242.987100,3707.811122 -1198.527669,3708.506415 -1191.512329,3740.503694 -1176.793891,3758.188214 -1163.625045,3796.923283 -1148.822495,3825.556955 -1130.037560,3849.116762 -1100.493739,3881.420605 -1070.070708,3898.799936 -1032.984354,3909.084746 -960.826159,3916.327827 -923.612075,3925.794910 -865.435717,3953.973421 -794.694694,3956.420275 -770.784352,3968.198665 -738.280948,3977.463092 -725.969198,3986.189883 -706.365655,4006.094212 -694.266871,4009.073482 -677.161825,4006.679394 -635.638539,3997.105959 -612.279287,3988.354953 -614.523292,3950.671662 -556.740795,3937.544370 -482.357485,3926.767139 -472.450102,3925.285064 -456.822267,3922.942466 -440.621595,3928.321574 -403.984340,3938.979083 -388.891971,3943.361690 -268.925463,3930.636381 -238.630706,3921.159325 -144.193844,3876.602190 -69.525276,3852.821501 -34.620263,3850.210880 1.882245,3842.159027 83.379888,3817.452088 108.879343,3790.568422 134.066678,3777.242512 162.964256,3771.703609 206.319604,3777.404676 232.040916,3779.848196 307.278472,3754.657230 335.071819,3740.295364 387.140282,3678.635210 392.197172,3668.336279 394.960385,3631.711194 401.173982,3610.232144 422.519596,3590.335778 441.993036,3584.689738 478.568268,3586.580170 531.399324,3564.038898 685.769115,3489.808782 917.652196,3328.519490 931.222704,3313.990363 947.072674,3295.311104 1008.268347,3209.988426 1058.774761,3130.379299"/>
    <poly id="232235456" type="landuse.residential" color="235,235,227" fill="1" layer="-3.00" shape="1762.882324,2912.549768 1824.346643,2901.899993 1882.384237,2891.846168 1900.181721,2888.763158 1905.454348,2942.131782 1909.097053,3005.114825 1806.508399,3009.463898 1770.670678,3010.734460 1762.882324,2912.549768"/>
    <poly id="232237173" type="leisure.park" color="207,245,201" fill="1" layer="-2.00" shape="1946.312632,3284.158317 1923.346701,3188.884002 1949.921751,3181.230617 1971.940118,3276.771995 1946.312632,3284.158317"/>
    <poly id="243553544" type="landuse.commercial" color="209,209,204" fill="1" layer="-3.00" shape="1102.854399,2750.457942 1136.420423,2877.732738 1151.128978,2964.186805 1154.919712,2968.343748 1207.457311,2871.795941 1220.845752,2851.752046 1240.236669,2820.311948 1365.755192,2625.698969 1334.276622,2612.712110 1282.959938,2667.382602 1102.854399,2750.457942"/>
    <poly id="245806441" type="landuse.commercial" color="209,209,204" fill="1" layer="-3.00" shape="1080.471685,3005.198028 1110.343381,3019.175608 1114.911420,3031.200362 1108.582943,3038.386553 1055.812157,3066.551311 1033.728333,3069.369532 804.386446,2993.649380 802.012605,2926.340460 842.234386,2917.917858 849.846056,2953.010756 1019.882706,2922.990290 1080.471685,3005.198028"/>
    <poly id="27994476" type="waterway.drain" color="181,209,209" fill="0" layer="-4.00" shape="499.857012,2963.403177 548.716344,2966.205030 624.723833,2967.922830 687.865035,2968.402270 793.110884,2975.965653 864.672770,2996.148020 1097.258586,3074.270949"/>
    <poly id="27994478" type="waterway.drain" color="181,209,209" fill="0" layer="-4.00" shape="1097.258586,3074.270949 1135.809876,3081.573546"/>
    <poly id="27994497" type="waterway.drain" color="181,209,209" fill="0" layer="-4.00" shape="1058.774761,3130.379299 1097.258586,3074.270949"/>
    <poly id="313831699" type="leisure.park" color="207,245,201" fill="1" layer="-2.00" shape="1770.941977,3162.045757 1824.033268,3145.055441 1836.192003,3141.172827 1831.385006,3118.606526 1762.937850,3118.756319 1770.941977,3162.045757"/>
    <poly id="313831699#1" type="natural.grassland" color="140,196,107" fill="1" layer="-4.00" shape="1770.941977,3162.045757 1824.033268,3145.055441 1836.192003,3141.172827 1831.385006,3118.606526 1762.937850,3118.756319 1770.941977,3162.045757"/>
    <poly id="333728072" type="landuse.residential" color="235,235,227" fill="1" layer="-3.00" shape="987.840637,3143.324828 998.524920,3124.338082 1015.347766,3109.288751 1024.882625,3100.751594 1006.996008,3086.055442 985.843828,3077.425567 984.434911,3082.459161 983.781126,3084.799354 982.744460,3088.475123 981.707681,3092.161961 981.087490,3094.402865 980.456555,3096.632590 976.828473,3117.960959 974.021974,3126.921243 973.617716,3128.223390 971.810323,3133.994610 970.833727,3137.106413 987.840637,3143.324828"/>
    <poly id="333728073" type="landuse.residential" color="235,235,227" fill="1" layer="-3.00" shape="905.986569,3116.593865 967.420161,3135.355591 982.813401,3078.556920 916.246049,3055.281359 913.421364,3063.898283 910.776298,3071.941395 902.582764,3096.909423 905.986569,3116.593865"/>
    <poly id="343430717" type="building.yes" color="255,230,230" fill="1" layer="-1.00" shape="1268.955101,3016.837055 1286.448435,3022.219297 1289.513627,3012.398194 1272.020286,3007.015952 1268.955101,3016.837055"/>
    <poly id="343430718" type="building.yes" color="255,230,230" fill="1" layer="-1.00" shape="1273.256466,3000.829287 1286.999495,3005.531030 1293.165346,2987.726847 1279.422308,2983.025102 1273.256466,3000.829287"/>
    <poly id="343430719" type="building.yes" color="255,230,230" fill="1" layer="-1.00" shape="1289.527673,3023.745329 1298.990970,3026.443798 1302.019880,3015.924900 1292.556466,3013.237499 1289.527673,3023.745329"/>
    <poly id="343430720" type="building.yes" color="255,230,230" fill="1" layer="-1.00" shape="1325.094759,3065.822434 1331.328443,3057.295811 1315.989156,3046.234436 1309.755475,3054.761061 1325.094759,3065.822434"/>
    <poly id="343430721" type="building.yes" color="255,230,230" fill="1" layer="-1.00" shape="1333.958747,3051.765506 1340.732082,3042.502709 1325.392788,3031.441329 1318.619457,3040.704130 1333.958747,3051.765506"/>
    <poly id="343430722" type="building.yes" color="255,230,230" fill="1" layer="-1.00" shape="1336.624867,3085.125318 1344.719768,3074.060547 1331.461013,3064.492824 1323.366116,3075.557598 1336.624867,3085.125318"/>
    <poly id="343430723" type="building.yes" color="255,230,230" fill="1" layer="-1.00" shape="1347.041527,3072.147050 1354.442622,3062.027210 1340.332201,3051.852963 1332.931111,3061.972805 1347.041527,3072.147050"/>
    <poly id="343430724" type="building.yes" color="255,230,230" fill="1" layer="-1.00" shape="1359.424413,3059.100373 1366.285869,3049.716711 1350.946700,3038.644246 1344.085248,3048.027911 1359.424413,3059.100373"/>
    <poly id="343430725" type="building.yes" color="255,230,230" fill="1" layer="-1.00" shape="1366.559282,3048.468576 1372.792983,3039.941959 1357.453810,3028.869491 1351.230971,3037.396222 1366.559282,3048.468576"/>
    <poly id="343430726" type="building.yes" color="255,230,230" fill="1" layer="-1.00" shape="1361.780154,3011.489272 1368.520479,3002.270420 1352.210972,2990.512731 1345.470766,2999.720517 1361.780154,3011.489272"/>
    <poly id="343430727" type="building.yes" color="255,230,230" fill="1" layer="-1.00" shape="1375.454317,3033.504215 1381.687910,3024.988668 1366.348730,3013.916196 1360.115027,3022.442815 1375.454317,3033.504215"/>
    <poly id="343430728" type="building.yes" color="255,230,230" fill="1" layer="-1.00" shape="1351.056316,3026.888775 1357.290016,3018.362155 1341.950711,3007.300768 1335.717015,3015.827391 1351.056316,3026.888775"/>
    <poly id="343430847" type="building.yes" color="255,230,230" fill="1" layer="-1.00" shape="1415.716558,3083.655517 1431.098024,3080.005035 1427.723446,3065.977648 1412.341974,3069.628134 1415.716558,3083.655517"/>
    <poly id="343430848" type="building.yes" color="255,230,230" fill="1" layer="-1.00" shape="1436.068099,3079.281069 1451.449572,3075.630597 1448.075003,3061.603206 1432.682665,3065.253571 1436.068099,3079.281069"/>
    <poly id="343430849" type="building.yes" color="255,230,230" fill="1" layer="-1.00" shape="1449.323335,3058.472054 1466.250527,3054.461046 1462.865102,3040.433541 1445.948761,3044.444665 1449.323335,3058.472054"/>
    <poly id="343430850" type="building.yes" color="255,230,230" fill="1" layer="-1.00" shape="1473.770212,3053.962491 1490.349160,3050.025417 1486.683176,3034.766233 1470.093248,3038.714269 1473.770212,3053.962491"/>
    <poly id="343430851" type="building.yes" color="255,230,230" fill="1" layer="-1.00" shape="1459.206803,3074.204574 1474.588398,3070.543044 1471.213839,3056.515649 1455.821379,3060.177071 1459.206803,3074.204574"/>
    <poly id="343430853" type="building.yes" color="255,230,230" fill="1" layer="-1.00" shape="1411.434392,3067.061604 1426.815865,3063.411118 1423.441282,3049.383733 1408.048943,3053.034112 1411.434392,3067.061604"/>
    <poly id="343430854" type="building.yes" color="255,230,230" fill="1" layer="-1.00" shape="1388.298989,3071.817135 1403.680568,3068.155568 1400.305975,3054.128188 1384.924389,3057.789759 1388.298989,3071.817135"/>
    <poly id="343430855" type="building.yes" color="255,230,230" fill="1" layer="-1.00" shape="1394.127074,3081.674040 1404.730163,3079.114799 1402.937692,3071.767923 1392.334601,3074.327165 1394.127074,3081.674040"/>
    <poly id="343430857" type="building.yes" color="255,230,230" fill="1" layer="-1.00" shape="1376.506364,3085.545135 1387.246802,3088.655260 1391.376709,3074.549822 1380.636266,3071.439696 1376.506364,3085.545135"/>
    <poly id="343430994" type="building.yes" color="255,230,230" fill="1" layer="-1.00" shape="1371.647290,2961.010468 1377.295837,2951.304406 1393.003615,2960.321590 1387.344092,2970.038608 1371.647290,2961.010468"/>
    <poly id="343430995" type="building.yes" color="255,230,230" fill="1" layer="-1.00" shape="1378.095545,2949.563504 1383.744209,2939.846373 1399.451993,2948.863560 1393.803324,2958.580689 1378.095545,2949.563504"/>
    <poly id="343430996" type="building.yes" color="255,230,230" fill="1" layer="-1.00" shape="1387.592129,2937.361796 1393.240798,2927.644666 1408.948588,2936.661857 1403.299913,2946.378985 1387.592129,2937.361796"/>
    <poly id="343430997" type="building.yes" color="255,230,230" fill="1" layer="-1.00" shape="1397.022714,2963.384960 1402.671270,2953.678902 1418.379041,2962.696102 1412.730366,2972.413228 1397.022714,2963.384960"/>
    <poly id="343430998" type="building.yes" color="255,230,230" fill="1" layer="-1.00" shape="1403.497994,2952.480719 1409.146554,2942.774661 1424.854331,2951.791864 1419.194795,2961.508878 1403.497994,2952.480719"/>
    <poly id="343430999" type="building.yes" color="255,230,230" fill="1" layer="-1.00" shape="1415.026520,2936.978771 1420.675200,2927.261645 1436.382984,2936.278854 1430.734299,2945.995978 1415.026520,2936.978771"/>
    <poly id="343431000" type="building.yes" color="255,230,230" fill="1" layer="-1.00" shape="1424.540145,2923.116709 1430.188830,2913.399584 1445.896622,2922.416797 1440.247931,2932.133920 1424.540145,2923.116709"/>
    <poly id="343431001" type="building.yes" color="255,230,230" fill="1" layer="-1.00" shape="1440.844729,2899.338899 1446.493310,2889.632844 1462.201113,2898.650064 1456.552413,2908.367186 1440.844729,2899.338899"/>
    <poly id="343431002" type="building.yes" color="255,230,230" fill="1" layer="-1.00" shape="1455.147277,2874.887425 1460.795981,2865.170302 1476.503796,2874.187528 1470.855088,2883.904649 1455.147277,2874.887425"/>
    <poly id="343431003" type="building.yes" color="255,230,230" fill="1" layer="-1.00" shape="1463.314530,2861.011566 1468.974096,2851.294556 1484.671061,2860.311674 1479.022347,2870.028794 1463.314530,2861.011566"/>
    <poly id="343431004" type="building.yes" color="255,230,230" fill="1" layer="-1.00" shape="1446.379041,2848.871026 1452.027745,2839.153902 1467.735579,2848.171120 1462.086870,2857.888242 1446.379041,2848.871026"/>
    <poly id="343431005" type="building.yes" color="255,230,230" fill="1" layer="-1.00" shape="1455.569831,2833.666157 1461.218541,2823.949033 1476.926269,2832.977324 1471.277668,2842.683377 1455.569831,2833.666157"/>
    <poly id="343431006" type="building.yes" color="255,230,230" fill="1" layer="-1.00" shape="1473.844930,2846.484650 1479.493531,2836.778598 1495.190502,2845.795721 1489.541783,2855.512840 1473.844930,2846.484650"/>
    <poly id="343431007" type="building.yes" color="255,230,230" fill="1" layer="-1.00" shape="1472.920226,2807.452546 1479.397946,2796.315860 1497.092129,2806.482619 1490.614403,2817.619303 1472.920226,2807.452546"/>
    <poly id="343431008" type="building.yes" color="255,230,230" fill="1" layer="-1.00" shape="1490.806905,2821.086264 1496.942013,2810.532792 1514.830608,2820.801191 1508.695493,2831.354661 1490.806905,2821.086264"/>
    <poly id="343431009" type="building.yes" color="255,230,230" fill="1" layer="-1.00" shape="1483.827929,2831.332189 1490.666089,2821.051610 1509.996016,2833.725958 1503.168707,2844.006645 1483.827929,2831.332189"/>
    <poly id="343431010" type="building.yes" color="255,230,230" fill="1" layer="-1.00" shape="1500.359566,2805.541935 1506.008296,2795.824816 1521.716146,2804.842063 1516.056553,2814.559069 1500.359566,2805.541935"/>
    <poly id="343431011" type="building.yes" color="255,230,230" fill="1" layer="-1.00" shape="1481.660175,2789.619410 1493.397898,2771.728445 1511.834011,2783.674057 1500.096277,2801.565016 1481.660175,2789.619410"/>
    <poly id="343431450" type="building.yes" color="255,230,230" fill="1" layer="-1.00" shape="1385.887058,2882.280939 1386.390809,2875.511114 1397.708581,2876.335603 1397.204827,2883.105428 1385.887058,2882.280939"/>
    <poly id="343431451" type="building.yes" color="255,230,230" fill="1" layer="-1.00" shape="1384.997662,2872.640714 1385.251790,2865.857261 1396.573763,2866.272192 1396.319632,2873.055646 1384.997662,2872.640714"/>
    <poly id="343431452" type="building.yes" color="255,230,230" fill="1" layer="-1.00" shape="1344.125643,2871.358389 1343.945392,2858.216170 1362.984356,2857.957388 1363.164598,2871.099609 1344.125643,2871.358389"/>
    <poly id="343431453" type="building.yes" color="255,230,230" fill="1" layer="-1.00" shape="1316.103724,2876.086079 1315.756614,2867.569512 1335.507017,2866.764489 1335.854121,2875.281058 1316.103724,2876.086079"/>
    <poly id="343431454" type="building.yes" color="255,230,230" fill="1" layer="-1.00" shape="1297.839715,2853.703133 1298.103544,2847.030485 1316.550612,2847.308046 1316.188034,2854.079315 1297.839715,2853.703133"/>
    <poly id="343431455" type="building.yes" color="255,230,230" fill="1" layer="-1.00" shape="1279.469626,2863.932022 1303.109929,2863.963884 1303.107297,2856.801415 1279.477733,2856.780735 1279.469626,2863.932022"/>
    <poly id="343431456" type="building.yes" color="255,230,230" fill="1" layer="-1.00" shape="1320.643749,2832.549079 1320.622390,2815.556049 1429.032802,2813.235231 1428.203782,2836.905986 1320.643749,2832.549079"/>
    <poly id="343431459" type="building.yes" color="255,230,230" fill="1" layer="-1.00" shape="1345.918437,2773.759406 1351.285892,2753.334464 1411.514400,2768.962903 1406.135927,2789.398800 1345.918437,2773.759406"/>
    <poly id="343431460" type="building.yes" color="255,230,230" fill="1" layer="-1.00" shape="1407.336223,2811.086636 1418.143382,2810.876361 1417.985165,2803.003797 1407.087103,2798.309023 1407.336223,2811.086636"/>
    <poly id="343431461" type="building.yes" color="255,230,230" fill="1" layer="-1.00" shape="1429.116557,2811.420570 1428.687503,2805.604294 1442.163198,2804.613252 1442.592363,2810.418459 1429.116557,2811.420570"/>
    <poly id="343431462" type="building.yes" color="255,230,230" fill="1" layer="-1.00" shape="1327.398364,2810.278551 1342.284198,2782.943676 1398.833909,2797.261328 1392.152434,2811.329552 1327.398364,2810.278551"/>
    <poly id="343431463" type="building.yes" color="255,230,230" fill="1" layer="-1.00" shape="1294.606660,2825.850513 1298.272035,2827.404687 1303.801526,2819.778594 1298.245047,2817.319427 1294.606660,2825.850513"/>
    <poly id="343431464" type="building.yes" color="255,230,230" fill="1" layer="-1.00" shape="1301.538805,2829.707553 1307.873496,2830.403457 1307.711536,2821.833436 1303.270554,2821.787937 1301.538805,2829.707553"/>
    <poly id="343431465" type="building.yes" color="255,230,230" fill="1" layer="-1.00" shape="1290.686105,2841.784694 1290.841577,2835.088796 1304.575198,2835.417691 1304.408977,2842.102410 1290.686105,2841.784694"/>
    <poly id="343432669" type="building.yes" color="255,230,230" fill="1" layer="-1.00" shape="1383.889933,2734.893430 1388.136650,2733.763503 1389.653784,2736.192363 1409.984070,2731.795487 1402.192902,2696.257659 1386.052756,2699.745442 1385.790561,2704.137640 1381.138457,2705.617662 1377.969690,2712.825128 1383.889933,2734.893430"/>
    <poly id="343432670" type="building.yes" color="255,230,230" fill="1" layer="-1.00" shape="1418.317342,2740.925279 1417.187102,2732.533522 1427.267393,2731.197701 1428.386659,2739.600417 1418.317342,2740.925279"/>
    <poly id="343432671" type="building.yes" color="255,230,230" fill="1" layer="-1.00" shape="1431.990476,2738.685312 1430.871211,2730.282595 1440.951391,2728.957848 1442.070653,2737.360566 1431.990476,2738.685312"/>
    <poly id="343432672" type="building.yes" color="255,230,230" fill="1" layer="-1.00" shape="1451.348461,2735.916896 1459.010747,2735.286939 1458.168992,2725.237598 1450.506702,2725.867556 1451.348461,2735.916896"/>
    <poly id="343432673" type="building.yes" color="255,230,230" fill="1" layer="-1.00" shape="1467.155981,2735.215446 1474.744304,2734.385471 1473.460806,2722.936749 1465.872366,2723.777794 1467.155981,2735.215446"/>
    <poly id="343432674" type="building.yes" color="255,230,230" fill="1" layer="-1.00" shape="1477.132539,2734.465303 1490.939241,2732.968439 1489.409825,2719.026388 1475.603117,2720.523254 1477.132539,2734.465303"/>
    <poly id="343433469" type="building.yes" color="255,230,230" fill="1" layer="-1.00" shape="1524.361916,2772.389071 1529.968816,2762.516542 1531.804527,2759.291780 1534.115128,2760.588549 1550.473124,2769.745319 1544.423718,2780.410366 1542.757574,2782.983722 1541.702325,2782.109422 1524.361916,2772.389071"/>
    <poly id="343433470" type="building.yes" color="255,230,230" fill="1" layer="-1.00" shape="1507.542492,2758.456310 1516.907706,2764.375276 1520.185244,2759.272283 1522.249091,2756.038788 1528.484519,2746.294475 1519.119299,2740.375506 1509.948274,2754.706019 1507.542492,2758.456310"/>
    <poly id="343433472" type="building.yes" color="255,230,230" fill="1" layer="-1.00" shape="1579.850864,2738.717739 1591.404976,2736.622172 1590.211602,2730.155974 1578.657374,2732.262612 1579.850864,2738.717739"/>
    <poly id="343433478" type="building.yes" color="255,230,230" fill="1" layer="-1.00" shape="1612.525016,2735.698527 1623.126864,2734.334913 1622.150928,2726.786058 1611.537878,2728.182768 1612.525016,2735.698527"/>
    <poly id="343434506" type="building.yes" color="255,230,230" fill="1" layer="-1.00" shape="1529.371629,2846.179387 1540.650868,2852.881841 1542.162157,2847.406492 1545.389450,2849.321528 1552.514979,2837.494071 1539.336162,2829.654039 1529.371629,2846.179387"/>
    <poly id="343434507" type="building.yes" color="255,230,230" fill="1" layer="-1.00" shape="1545.673463,2852.335549 1560.635803,2860.979865 1576.076851,2834.591737 1561.114499,2825.947416 1545.673463,2852.335549"/>
    <poly id="343434508" type="building.yes" color="255,230,230" fill="1" layer="-1.00" shape="1565.636681,2823.370138 1578.434552,2831.294839 1595.248301,2804.477982 1582.439560,2796.553164 1565.636681,2823.370138"/>
    <poly id="343434509" type="building.yes" color="255,230,230" fill="1" layer="-1.00" shape="1551.899099,2812.834299 1563.002121,2819.778500 1571.920815,2805.700030 1560.795958,2798.766673 1551.899099,2812.834299"/>
    <poly id="343434510" type="building.yes" color="255,230,230" fill="1" layer="-1.00" shape="1586.343781,2862.704779 1593.201198,2852.667961 1605.441764,2860.930141 1598.584229,2870.978025 1586.343781,2862.704779"/>
    <poly id="343434511" type="building.yes" color="255,230,230" fill="1" layer="-1.00" shape="1578.043551,2876.833865 1584.911935,2866.786089 1597.152495,2875.048267 1590.284108,2885.096040 1578.043551,2876.833865"/>
    <poly id="343434512" type="building.yes" color="255,230,230" fill="1" layer="-1.00" shape="1596.957066,2850.691694 1603.814603,2840.643809 1616.055173,2848.905993 1609.197632,2858.953876 1596.957066,2850.691694"/>
    <poly id="343434513" type="building.yes" color="255,230,230" fill="1" layer="-1.00" shape="1607.316129,2834.878905 1614.173674,2824.831021 1626.414136,2833.104278 1619.556701,2843.141091 1607.316129,2834.878905"/>
    <poly id="343434514" type="building.yes" color="255,230,230" fill="1" layer="-1.00" shape="1614.415027,2819.298367 1621.283435,2809.250595 1635.303467,2818.715555 1628.435055,2828.763324 1614.415027,2819.298367"/>
    <poly id="343434515" type="building.yes" color="255,230,230" fill="1" layer="-1.00" shape="1564.935651,2792.189110 1571.793185,2782.141217 1584.033677,2790.414449 1577.176253,2800.451271 1564.935651,2792.189110"/>
    <poly id="343434516" type="building.yes" color="255,230,230" fill="1" layer="-1.00" shape="1594.567477,2811.567035 1603.768316,2796.450862 1618.932214,2805.562223 1609.742226,2820.678505 1594.567477,2811.567035"/>
    <poly id="343434517" type="building.yes" color="255,230,230" fill="1" layer="-1.00" shape="1601.304736,2787.835075 1612.054905,2787.889976 1612.153424,2769.813254 1601.392390,2769.758243 1601.304736,2787.835075"/>
    <poly id="343434518" type="building.yes" color="255,230,230" fill="1" layer="-1.00" shape="1648.471524,2786.315123 1659.626929,2787.093766 1660.884353,2769.316752 1649.718084,2768.537999 1648.471524,2786.315123"/>
    <poly id="343434519" type="building.yes" color="255,230,230" fill="1" layer="-1.00" shape="1571.940654,2859.889137 1577.431488,2850.746063 1584.145303,2854.711647 1578.665211,2863.865900 1571.940654,2859.889137"/>
    <poly id="343434983" type="building.yes" color="255,230,230" fill="1" layer="-1.00" shape="1507.946438,2875.816179 1519.416460,2882.974463 1527.739355,2869.808710 1516.269329,2862.650423 1507.946438,2875.816179"/>
    <poly id="343434984" type="building.yes" color="255,230,230" fill="1" layer="-1.00" shape="1526.200111,2879.069799 1532.985996,2869.652172 1544.715325,2877.997644 1537.929437,2887.415268 1526.200111,2879.069799"/>
    <poly id="343434985" type="building.yes" color="255,230,230" fill="1" layer="-1.00" shape="1416.589611,3021.792867 1426.721157,3027.099740 1423.763649,3031.707855 1413.846335,3033.045326 1410.074568,3031.279705 1416.589611,3021.792867"/>
    <poly id="343434986" type="building.yes" color="255,230,230" fill="1" layer="-1.00" shape="1420.234494,3012.630856 1424.908584,3015.357769 1423.029918,3018.537812 1429.398966,3022.234142 1435.941443,3011.131332 1432.530373,3009.136931 1434.884449,3005.131493 1427.263234,3000.702761 1420.234494,3012.630856"/>
    <poly id="343434987" type="building.yes" color="255,230,230" fill="1" layer="-1.00" shape="1432.757027,3023.043483 1442.714883,3030.463000 1452.369621,3017.665140 1442.411761,3010.245621 1432.757027,3023.043483"/>