<?xml version="1.0" encoding="UTF-8"?>

<!-- generated on Mon Mar 22 11:15:51 2021 by Eclipse SUMO duarouter Version 1.8.0
<configuration xmlns:xsi="http://www.w3.org/2001/XMLSchema-instance" xsi:noNamespaceSchemaLocation="http://sumo.dlr.de/xsd/duarouterConfiguration.xsd">

    <input>
        <net-file value="sarakkiSmall.net.xml"/>
        <route-files value="trips.trips.xml"/>
    </input>

    <output>
        <output-file value="sarakkiSmall.rou.xml"/>
        <alternatives-output value="sarakkiSmall.rou.alt.xml"/>
    </output>

    <time>
        <begin value="0"/>
        <end value="50"/>
    </time>

    <report>
        <no-warnings value="true"/>
        <ignore-errors value="true"/>
        <no-step-log value="true"/>
    </report>

</configuration>
-->

<routes xmlns:xsi="http://www.w3.org/2001/XMLSchema-instance" xsi:noNamespaceSchemaLocation="http://sumo.dlr.de/xsd/routes_file.xsd">
    <vehicle id="1" depart="1.00">
        <route edges="462900086#2 462900086#3 462900086#4 328774395 554803421 554803418 328774394"/>
    </vehicle>
    <vehicle id="2" depart="2.00">
        <route edges="660054260#0 660054260#1 554803418 249195004#1 55675974"/>
    </vehicle>
    <vehicle id="6" depart="6.00">
        <route edges="-760110507 760110506#1 462900086#4 328774395 554803421 554803418 328774394"/>
    </vehicle>
    <vehicle id="10" depart="10.00">
        <route edges="660054260#0 660054260#1 554803418 249195004#1 55675974"/>
    </vehicle>
    <vehicle id="11" depart="11.00">
        <route edges="462900086#2 462900086#3 462900086#4 328774395 554803421 554803418 328774394"/>
    </vehicle>
    <vehicle id="12" depart="12.00">
        <route edges="92194630 458798178#0 458798178#1 458798178#2"/>
    </vehicle>
    <vehicle id="15" depart="15.00">
        <route edges="660054260#0 660054260#1 554803418 249195004#1 55675974"/>
    </vehicle>
    <vehicle id="16" depart="16.00">
        <route edges="660054260#0 660054260#1 92194639"/>
    </vehicle>
    <vehicle id="21" depart="21.00">
        <route edges="458798178#1"/>
    </vehicle>
    <vehicle id="22" depart="22.00">
        <route edges="249195004#0 249195004#1 328774395 458798178#0"/>
    </vehicle>
    <vehicle id="23" depart="23.00">
        <route edges="249195004#0 249195004#1 328774395 458798178#0 458798178#1"/>
    </vehicle>
    <vehicle id="24" depart="24.00">
        <route edges="660054260#0 660054260#1 554803418 249195004#1 328774395 458798178#0 458798178#1 458798178#2"/>
    </vehicle>
    <vehicle id="25" depart="25.00">
        <route edges="655019293#1 -655019293#1 -655019293#0 462900086#3 462900086#4 328774395 554803421 554803418 328774394"/>
    </vehicle>
    <vehicle id="26" depart="26.00">
        <route edges="462900086#2 462900086#3 462900086#4 328774395 554803421 92194639"/>
    </vehicle>
    <vehicle id="28" depart="28.00">
        <route edges="249195004#0 249195004#1 55675974"/>
    </vehicle>
    <vehicle id="29" depart="29.00">
        <route edges="249195004#0 249195004#1 328774395 458798178#0 458798178#1 458798178#2"/>
    </vehicle>
    <vehicle id="30" depart="30.00">
        <route edges="92194630 554803421 554803418 249195004#1 55675974"/>
    </vehicle>
    <vehicle id="31" depart="31.00">
        <route edges="660054260#0 660054260#1 554803418 249195004#1 55675974"/>
    </vehicle>
    <vehicle id="32" depart="32.00">
        <route edges="760110507 -760110507 760110506#1 462900086#4 55675974"/>
    </vehicle>
    <vehicle id="34" depart="34.00">
        <route edges="462900086#2 462900086#3 462900086#4 328774395 458798178#0 458798178#1"/>
    </vehicle>
    <vehicle id="37" depart="37.00">
        <route edges="660054260#0 660054260#1 554803418 249195004#1 328774395 458798178#0 458798178#1 458798178#2"/>
    </vehicle>
    <vehicle id="38" depart="38.00">
        <route edges="92194630 458798178#0 458798178#1 458798178#2"/>
    </vehicle>
    <vehicle id="39" depart="39.00">
        <route edges="462900086#2 462900086#3 462900086#4 328774395 458798178#0 458798178#1"/>
    </vehicle>
    <vehicle id="40" depart="40.00">
        <route edges="660054260#0 660054260#1 554803418 249195004#1 328774395 458798178#0 458798178#1"/>
    </vehicle>
    <vehicle id="41" depart="41.00">
        <route edges="660054260#0 660054260#1 92194639"/>
    </vehicle>
    <vehicle id="42" depart="42.00">
        <route edges="660054260#0 660054260#1 554803418 328774394"/>
    </vehicle>
    <vehicle id="46" depart="46.00">
        <route edges="660054260#0 660054260#1 554803418 249195004#1 328774395 458798178#0 458798178#1 458798178#2"/>
    </vehicle>
    <vehicle id="47" depart="47.00">
        <route edges="-780935947 780935947 660054260#1 554803418 249195004#1 328774395 458798178#0 458798178#1 458798178#2"/>
    </vehicle>
</routes>
