<?xml version="1.0" encoding="UTF-8"?>

<!-- generated on Mon Mar 22 11:03:02 2021 by Eclipse SUMO netconvert Version 1.8.0
<configuration xmlns:xsi="http://www.w3.org/2001/XMLSchema-instance" xsi:noNamespaceSchemaLocation="http://sumo.dlr.de/xsd/netconvertConfiguration.xsd">

    <input>
        <osm-files value="sarakkiSmall.osm"/>
    </input>

    <output>
        <output-file value="sarakkiSmall.net.xml"/>
    </output>

    <projection>
        <proj.utm value="true"/>
    </projection>

    <processing>
        <lefthand value="true"/>
    </processing>

    <report>
        <aggregate-warnings value="5"/>
    </report>

</configuration>
-->

<net version="1.6" junctionCornerDetail="5" lefthand="true" limitTurnSpeed="5.50" xmlns:xsi="http://www.w3.org/2001/XMLSchema-instance" xsi:noNamespaceSchemaLocation="http://sumo.dlr.de/xsd/net_file.xsd">

    <location netOffset="-776096.49,-1424803.84" convBoundary="0.00,-0.00,4462.04,4637.10" origBoundary="77.544030,12.876128,77.585429,12.917733" projParameter="+proj=utm +zone=43 +ellps=WGS84 +datum=WGS84 +units=m +no_defs"/>

    <type id="highway.bridleway" priority="1" numLanes="1" speed="2.78" allow="pedestrian" oneway="1" width="2.00"/>
    <type id="highway.bus_guideway" priority="1" numLanes="1" speed="27.78" allow="bus" oneway="1"/>
    <type id="highway.cycleway" priority="1" numLanes="1" speed="8.33" allow="bicycle" oneway="0" width="1.00"/>
    <type id="highway.footway" priority="1" numLanes="1" speed="2.78" allow="pedestrian" oneway="1" width="2.00"/>
    <type id="highway.ford" priority="1" numLanes="1" speed="2.78" allow="army" oneway="0"/>
    <type id="highway.living_street" priority="2" numLanes="1" speed="2.78" disallow="tram rail_urban rail rail_electric rail_fast ship" oneway="0"/>
    <type id="highway.motorway" priority="14" numLanes="2" speed="39.44" allow="private emergency authority army vip passenger hov taxi bus coach delivery truck trailer motorcycle evehicle custom1 custom2" oneway="1"/>
    <type id="highway.motorway_link" priority="9" numLanes="1" speed="22.22" allow="private emergency authority army vip passenger hov taxi bus coach delivery truck trailer motorcycle evehicle custom1 custom2" oneway="1"/>
    <type id="highway.path" priority="1" numLanes="1" speed="2.78" allow="pedestrian bicycle" oneway="0" width="2.00"/>
    <type id="highway.pedestrian" priority="1" numLanes="1" speed="2.78" allow="pedestrian" oneway="1" width="2.00"/>
    <type id="highway.primary" priority="12" numLanes="2" speed="27.78" disallow="tram rail_urban rail rail_electric rail_fast ship" oneway="0"/>
    <type id="highway.primary_link" priority="7" numLanes="1" speed="22.22" disallow="tram rail_urban rail rail_electric rail_fast ship" oneway="0"/>
    <type id="highway.raceway" priority="15" numLanes="2" speed="83.33" allow="vip" oneway="0"/>
    <type id="highway.residential" priority="3" numLanes="1" speed="13.89" disallow="tram rail_urban rail rail_electric rail_fast ship" oneway="0"/>
    <type id="highway.secondary" priority="11" numLanes="1" speed="27.78" disallow="tram rail_urban rail rail_electric rail_fast ship" oneway="0"/>
    <type id="highway.secondary_link" priority="6" numLanes="1" speed="22.22" disallow="tram rail_urban rail rail_electric rail_fast ship" oneway="0"/>
    <type id="highway.service" priority="1" numLanes="1" speed="5.56" allow="pedestrian delivery bicycle" oneway="0"/>
    <type id="highway.stairs" priority="1" numLanes="1" speed="1.39" allow="pedestrian" oneway="1" width="2.00"/>
    <type id="highway.step" priority="1" numLanes="1" speed="1.39" allow="pedestrian" oneway="1" width="2.00"/>
    <type id="highway.steps" priority="1" numLanes="1" speed="1.39" allow="pedestrian" oneway="1" width="2.00"/>
    <type id="highway.tertiary" priority="10" numLanes="1" speed="22.22" disallow="tram rail_urban rail rail_electric rail_fast ship" oneway="0"/>
    <type id="highway.tertiary_link" priority="5" numLanes="1" speed="22.22" disallow="tram rail_urban rail rail_electric rail_fast ship" oneway="0"/>
    <type id="highway.track" priority="1" numLanes="1" speed="5.56" allow="pedestrian motorcycle moped bicycle" oneway="0"/>
    <type id="highway.trunk" priority="13" numLanes="2" speed="27.78" disallow="pedestrian bicycle tram rail_urban rail rail_electric rail_fast ship" oneway="0"/>
    <type id="highway.trunk_link" priority="8" numLanes="1" speed="22.22" disallow="pedestrian bicycle tram rail_urban rail rail_electric rail_fast ship" oneway="0"/>
    <type id="highway.unclassified" priority="4" numLanes="1" speed="13.89" disallow="tram rail_urban rail rail_electric rail_fast ship" oneway="0"/>
    <type id="highway.unsurfaced" priority="1" numLanes="1" speed="8.33" disallow="tram rail_urban rail rail_electric rail_fast ship" oneway="0"/>
    <type id="railway.highspeed" priority="21" numLanes="1" speed="69.44" allow="rail_fast" oneway="1"/>
    <type id="railway.light_rail" priority="19" numLanes="1" speed="27.78" allow="rail_urban" oneway="1"/>
    <type id="railway.preserved" priority="16" numLanes="1" speed="27.78" allow="rail" oneway="1"/>
    <type id="railway.rail" priority="20" numLanes="1" speed="44.44" allow="rail" oneway="1"/>
    <type id="railway.subway" priority="18" numLanes="1" speed="27.78" allow="rail_urban" oneway="1"/>
    <type id="railway.tram" priority="17" numLanes="1" speed="13.89" allow="tram" oneway="1"/>

    <edge id=":1148858377_0" function="internal">
        <lane id=":1148858377_0_0" index="0" disallow="pedestrian bicycle tram rail_urban rail rail_electric rail_fast ship" speed="27.78" length="13.29" shape="3108.81,2630.52 3107.92,2626.72 3107.79,2624.01 3107.70,2621.29 3106.93,2617.45"/>
        <lane id=":1148858377_0_1" index="1" disallow="pedestrian bicycle tram rail_urban rail rail_electric rail_fast ship" speed="27.78" length="13.29" shape="3105.76,2631.48 3104.86,2627.65 3104.73,2624.93 3104.63,2622.19 3103.85,2618.32"/>
    </edge>
    <edge id=":1148858377_2" function="internal">
        <lane id=":1148858377_2_0" index="0" allow="rail_urban" speed="27.78" length="13.86" shape="3108.35,2630.66 3106.82,2627.50 3104.68,2624.89 3102.43,2622.32 3100.57,2619.29"/>
    </edge>
    <edge id=":248678594_0" function="internal">
        <lane id=":248678594_0_0" index="0" disallow="pedestrian bicycle tram rail_urban rail rail_electric rail_fast ship" speed="6.31" length="9.04" shape="3157.67,3386.68 3155.18,3386.31 3153.49,3385.24 3152.58,3383.44 3152.46,3380.93"/>
    </edge>
    <edge id=":248678594_1" function="internal">
        <lane id=":248678594_1_0" index="0" disallow="pedestrian bicycle tram rail_urban rail rail_electric rail_fast ship" speed="13.89" length="15.90" shape="3157.67,3386.68 3152.89,3386.69 3149.63,3386.81 3146.37,3387.12 3141.63,3387.70"/>
        <lane id=":248678594_1_1" index="1" disallow="pedestrian bicycle tram rail_urban rail rail_electric rail_fast ship" speed="13.89" length="15.90" shape="3157.66,3389.88 3153.01,3389.89 3149.82,3390.01 3146.64,3390.31 3142.02,3390.87"/>
    </edge>
    <edge id=":248678594_3" function="internal">
        <lane id=":248678594_3_0" index="0" disallow="pedestrian bicycle tram rail_urban rail rail_electric rail_fast ship" speed="27.78" length="12.17" shape="3150.85,3393.14 3151.50,3389.54 3151.87,3387.07 3152.12,3384.58 3152.46,3380.93"/>
        <lane id=":248678594_3_1" index="1" disallow="pedestrian bicycle tram rail_urban rail rail_electric rail_fast ship" speed="27.78" length="12.17" shape="3147.70,3392.54 3148.34,3389.03 3148.70,3386.61 3148.95,3384.18 3149.28,3380.63"/>
    </edge>
    <edge id=":248678594_5" function="internal">
        <lane id=":248678594_5_0" index="0" disallow="pedestrian bicycle tram rail_urban rail rail_electric rail_fast ship" speed="5.22" length="6.72" shape="3147.70,3392.54 3147.52,3391.53 3146.51,3390.91 3144.68,3390.69 3142.02,3390.87"/>
    </edge>
    <edge id=":248839215_0" function="internal">
        <lane id=":248839215_0_0" index="0" disallow="pedestrian bicycle tram rail_urban rail rail_electric rail_fast ship" speed="27.78" length="0.27" shape="3171.50,4556.41 3171.52,4556.10"/>
        <lane id=":248839215_0_1" index="1" disallow="pedestrian bicycle tram rail_urban rail rail_electric rail_fast ship" speed="27.78" length="0.27" shape="3168.31,4556.15 3168.32,4555.92"/>
    </edge>
    <edge id=":4614143317_0" function="internal">
        <lane id=":4614143317_0_0" index="0" disallow="pedestrian bicycle tram rail_urban rail rail_electric rail_fast ship" speed="7.48" length="9.65" shape="3133.06,3383.77 3132.33,3386.03 3130.97,3387.76 3128.95,3388.94 3126.30,3389.58"/>
    </edge>
    <edge id=":4614143317_1" function="internal">
        <lane id=":4614143317_1_0" index="0" disallow="pedestrian bicycle tram rail_urban rail rail_electric rail_fast ship" speed="27.78" length="10.59" shape="3133.06,3383.77 3131.45,3394.25"/>
        <lane id=":4614143317_1_1" index="1" disallow="pedestrian bicycle tram rail_urban rail rail_electric rail_fast ship" speed="27.78" length="10.59" shape="3136.22,3384.27 3134.62,3394.71"/>
    </edge>
    <edge id=":4614143317_3" function="internal">
        <lane id=":4614143317_3_0" index="0" disallow="pedestrian bicycle tram rail_urban rail rail_electric rail_fast ship" speed="13.89" length="14.47" shape="3140.66,3387.82 3126.30,3389.58"/>
        <lane id=":4614143317_3_1" index="1" disallow="pedestrian bicycle tram rail_urban rail rail_electric rail_fast ship" speed="13.89" length="14.47" shape="3141.05,3390.99 3126.69,3392.76"/>
    </edge>
    <edge id=":4614143317_5" function="internal">
        <lane id=":4614143317_5_0" index="0" disallow="pedestrian bicycle tram rail_urban rail rail_electric rail_fast ship" speed="6.80" length="7.92" shape="3141.05,3390.99 3138.40,3391.50 3136.44,3392.29 3135.18,3393.36 3134.62,3394.71"/>
    </edge>
    <edge id=":6137413195_0" function="internal">
        <lane id=":6137413195_0_0" index="0" disallow="tram rail_urban rail rail_electric rail_fast ship" speed="3.65" length="4.67" shape="3430.36,3458.26 3431.63,3457.58 3432.10,3456.82 3431.78,3455.98 3430.66,3455.07"/>
    </edge>
    <edge id=":6137413199_0" function="internal">
        <lane id=":6137413199_0_0" index="0" disallow="pedestrian bicycle tram rail_urban rail rail_electric rail_fast ship" speed="5.66" length="7.74" shape="3146.31,3452.83 3144.55,3452.63 3143.41,3451.63 3142.90,3449.84 3143.01,3447.26"/>
    </edge>
    <edge id=":6137413199_1" function="internal">
        <lane id=":6137413199_1_0" index="0" disallow="tram rail_urban rail rail_electric rail_fast ship" speed="3.65" length="4.67" shape="3146.31,3452.83 3145.19,3453.74 3144.87,3454.58 3145.34,3455.34 3146.61,3456.02"/>
    </edge>
    <edge id=":6137413199_2" function="internal">
        <lane id=":6137413199_2_0" index="0" disallow="pedestrian bicycle tram rail_urban rail rail_electric rail_fast ship" speed="7.00" length="8.73" shape="3140.96,3461.69 3141.59,3459.38 3142.74,3457.67 3144.42,3456.55 3146.61,3456.02"/>
    </edge>
    <edge id=":6137413199_3" function="internal">
        <lane id=":6137413199_3_0" index="0" disallow="pedestrian bicycle tram rail_urban rail rail_electric rail_fast ship" speed="27.78" length="14.58" shape="3140.96,3461.69 3143.01,3447.26"/>
        <lane id=":6137413199_3_1" index="1" disallow="pedestrian bicycle tram rail_urban rail rail_electric rail_fast ship" speed="27.78" length="14.58" shape="3137.79,3461.24 3139.84,3446.81"/>
    </edge>
    <edge id=":699576776_0" function="internal">
        <lane id=":699576776_0_0" index="0" disallow="pedestrian bicycle tram rail_urban rail rail_electric rail_fast ship" speed="27.78" length="14.00" shape="3131.42,3394.45 3129.42,3408.31"/>
        <lane id=":699576776_0_1" index="1" disallow="pedestrian bicycle tram rail_urban rail rail_electric rail_fast ship" speed="27.78" length="14.00" shape="3134.59,3394.91 3132.59,3408.76"/>
    </edge>
    <edge id=":699576776_2" function="internal">
        <lane id=":699576776_2_0" index="0" disallow="pedestrian bicycle tram rail_urban rail rail_electric rail_fast ship" speed="5.19" length="6.89" shape="3134.59,3394.91 3134.74,3396.28 3135.68,3397.07 3137.41,3397.28 3139.92,3396.91"/>
    </edge>
    <edge id=":699576776_3" function="internal">
        <lane id=":699576776_3_0" index="0" disallow="pedestrian bicycle tram rail_urban rail rail_electric rail_fast ship" speed="5.97" length="9.09" shape="3124.22,3403.13 3126.82,3403.11 3128.56,3403.97 3129.43,3405.70 3129.42,3408.31"/>
    </edge>
    <edge id=":699576776_4" function="internal">
        <lane id=":699576776_4_0" index="0" disallow="pedestrian bicycle tram rail_urban rail rail_electric rail_fast ship" speed="27.78" length="16.59" shape="3124.22,3403.13 3140.63,3400.03"/>
        <lane id=":699576776_4_1" index="1" disallow="pedestrian bicycle tram rail_urban rail rail_electric rail_fast ship" speed="27.78" length="16.59" shape="3123.74,3399.97 3139.92,3396.91"/>
    </edge>
    <edge id=":699576791_0" function="internal">
        <lane id=":699576791_0_0" index="0" disallow="pedestrian bicycle tram rail_urban rail rail_electric rail_fast ship" speed="27.78" length="0.29" shape="3166.82,4615.19 3166.85,4614.88"/>
        <lane id=":699576791_0_1" index="1" disallow="pedestrian bicycle tram rail_urban rail rail_electric rail_fast ship" speed="27.78" length="0.29" shape="3163.63,4614.90 3163.66,4614.63"/>
    </edge>
    <edge id=":699576806_0" function="internal">
        <lane id=":699576806_0_0" index="0" disallow="pedestrian bicycle tram rail_urban rail rail_electric rail_fast ship" speed="7.35" length="10.61" shape="3149.00,3404.87 3149.79,3401.95 3151.20,3399.87 3153.23,3398.63 3155.89,3398.24"/>
    </edge>
    <edge id=":699576806_1" function="internal">
        <lane id=":699576806_1_0" index="0" disallow="pedestrian bicycle tram rail_urban rail rail_electric rail_fast ship" speed="27.78" length="11.75" shape="3149.00,3404.87 3150.81,3393.34"/>
        <lane id=":699576806_1_1" index="1" disallow="pedestrian bicycle tram rail_urban rail rail_electric rail_fast ship" speed="27.78" length="11.75" shape="3145.83,3404.42 3147.67,3392.73"/>
    </edge>
    <edge id=":699576806_3" function="internal">
        <lane id=":699576806_3_0" index="0" disallow="pedestrian bicycle tram rail_urban rail rail_electric rail_fast ship" speed="27.78" length="15.60" shape="3140.83,3399.99 3145.23,3398.99 3148.29,3398.46 3151.38,3398.25 3155.89,3398.24"/>
        <lane id=":699576806_3_1" index="1" disallow="pedestrian bicycle tram rail_urban rail rail_electric rail_fast ship" speed="27.78" length="15.60" shape="3140.11,3396.87 3144.74,3395.83 3147.94,3395.27 3151.18,3395.05 3155.91,3395.04"/>
    </edge>
    <edge id=":699576806_5" function="internal">
        <lane id=":699576806_5_0" index="0" disallow="pedestrian bicycle tram rail_urban rail rail_electric rail_fast ship" speed="7.70" length="8.94" shape="3140.11,3396.87 3143.24,3396.00 3145.54,3395.03 3147.01,3393.94 3147.67,3392.73"/>
    </edge>
    <edge id=":7100697624_0" function="internal">
        <lane id=":7100697624_0_0" index="0" disallow="tram rail_urban rail rail_electric rail_fast ship" speed="6.47" length="8.16" shape="3150.18,3446.35 3149.91,3449.05 3149.21,3451.03 3148.08,3452.29 3146.51,3452.82"/>
    </edge>
    <edge id=":7100697624_1" function="internal">
        <lane id=":7100697624_1_0" index="0" disallow="tram rail_urban rail rail_electric rail_fast ship" speed="7.82" length="14.63" shape="3150.18,3446.35 3150.69,3450.39 3152.39,3453.15 3155.27,3454.63 3159.34,3454.84"/>
    </edge>
    <edge id=":7100697624_2" function="internal">
        <lane id=":7100697624_2_0" index="0" disallow="tram rail_urban rail rail_electric rail_fast ship" speed="3.65" length="4.67" shape="3150.18,3446.35 3150.96,3447.56 3151.75,3447.97 3152.56,3447.59 3153.38,3446.40"/>
    </edge>
    <edge id=":7100697624_3" function="internal">
        <lane id=":7100697624_3_0" index="0" disallow="tram rail_urban rail rail_electric rail_fast ship" speed="6.28" length="9.04" shape="3159.04,3451.65 3156.53,3451.52 3154.75,3450.61 3153.70,3448.90 3153.38,3446.40"/>
    </edge>
    <edge id=":7100697624_4" function="internal">
        <lane id=":7100697624_4_0" index="0" disallow="tram rail_urban rail rail_electric rail_fast ship" speed="13.89" length="12.58" shape="3159.04,3451.65 3146.51,3452.82"/>
    </edge>
    <edge id=":7100697624_5" function="internal">
        <lane id=":7100697624_5_0" index="0" disallow="tram rail_urban rail rail_electric rail_fast ship" speed="3.65" length="2.34" shape="3159.04,3451.65 3157.92,3452.56 3157.60,3453.39"/>
    </edge>
    <edge id=":7100697624_9" function="internal">
        <lane id=":7100697624_9_0" index="0" disallow="tram rail_urban rail rail_electric rail_fast ship" speed="3.65" length="2.34" shape="3157.60,3453.39 3158.07,3454.15 3159.34,3454.84"/>
    </edge>
    <edge id=":7100697624_6" function="internal">
        <lane id=":7100697624_6_0" index="0" disallow="tram rail_urban rail rail_electric rail_fast ship" speed="13.89" length="12.58" shape="3146.81,3456.00 3159.34,3454.84"/>
    </edge>
    <edge id=":7100697624_7" function="internal">
        <lane id=":7100697624_7_0" index="0" disallow="tram rail_urban rail rail_electric rail_fast ship" speed="7.97" length="4.65" shape="3146.81,3456.00 3149.63,3455.18 3150.89,3454.02"/>
    </edge>
    <edge id=":7100697624_8" function="internal">
        <lane id=":7100697624_8_0" index="0" disallow="tram rail_urban rail rail_electric rail_fast ship" speed="3.65" length="2.34" shape="3146.81,3456.00 3147.93,3455.09 3148.26,3454.26"/>
    </edge>
    <edge id=":7100697624_10" function="internal">
        <lane id=":7100697624_10_0" index="0" disallow="tram rail_urban rail rail_electric rail_fast ship" speed="7.97" length="8.24" shape="3150.89,3454.02 3151.66,3453.30 3152.91,3450.38 3153.38,3446.40"/>
    </edge>
    <edge id=":7100697624_11" function="internal">
        <lane id=":7100697624_11_0" index="0" disallow="tram rail_urban rail rail_electric rail_fast ship" speed="3.65" length="2.34" shape="3148.26,3454.26 3147.78,3453.50 3146.51,3452.82"/>
    </edge>
    <edge id=":7100697625_0" function="internal">
        <lane id=":7100697625_0_0" index="0" disallow="tram rail_urban rail rail_electric rail_fast ship" speed="10.92" length="7.60" shape="3158.56,3419.98 3156.31,3420.33 3154.69,3420.64 3153.17,3420.55 3151.21,3419.65"/>
    </edge>
    <edge id=":7100697625_1" function="internal">
        <lane id=":7100697625_1_0" index="0" disallow="tram rail_urban rail rail_electric rail_fast ship" speed="8.02" length="5.96" shape="3158.56,3419.98 3155.07,3420.77 3153.10,3422.10"/>
    </edge>
    <edge id=":7100697625_2" function="internal">
        <lane id=":7100697625_2_0" index="0" disallow="tram rail_urban rail rail_electric rail_fast ship" speed="3.65" length="2.34" shape="3158.56,3419.98 3157.43,3420.88 3157.09,3421.71"/>
    </edge>
    <edge id=":7100697625_9" function="internal">
        <lane id=":7100697625_9_0" index="0" disallow="tram rail_urban rail rail_electric rail_fast ship" speed="8.02" length="7.24" shape="3153.10,3422.10 3152.57,3422.47 3151.03,3425.08 3150.48,3428.60"/>
    </edge>
    <edge id=":7100697625_10" function="internal">
        <lane id=":7100697625_10_0" index="0" disallow="tram rail_urban rail rail_electric rail_fast ship" speed="3.65" length="2.34" shape="3157.09,3421.71 3157.56,3422.47 3158.82,3423.17"/>
    </edge>
    <edge id=":7100697625_3" function="internal">
        <lane id=":7100697625_3_0" index="0" disallow="tram rail_urban rail rail_electric rail_fast ship" speed="6.52" length="8.40" shape="3153.68,3428.66 3154.03,3426.41 3155.01,3424.75 3156.60,3423.67 3158.82,3423.17"/>
    </edge>
    <edge id=":7100697625_4" function="internal">
        <lane id=":7100697625_4_0" index="0" disallow="tram rail_urban rail rail_electric rail_fast ship" speed="8.50" length="9.66" shape="3153.68,3428.66 3153.57,3425.31 3153.13,3422.69 3152.34,3420.80 3151.21,3419.65"/>
    </edge>
    <edge id=":7100697625_5" function="internal">
        <lane id=":7100697625_5_0" index="0" disallow="tram rail_urban rail rail_electric rail_fast ship" speed="3.65" length="4.67" shape="3153.68,3428.66 3152.90,3427.45 3152.11,3427.03 3151.30,3427.42 3150.48,3428.60"/>
    </edge>
    <edge id=":7100697625_6" function="internal">
        <lane id=":7100697625_6_0" index="0" disallow="tram rail_urban rail rail_electric rail_fast ship" speed="7.03" length="6.40" shape="3149.56,3422.39 3150.00,3423.01 3150.30,3424.25 3150.46,3426.12 3150.48,3428.60"/>
    </edge>
    <edge id=":7100697625_7" function="internal">
        <lane id=":7100697625_7_0" index="0" disallow="tram rail_urban rail rail_electric rail_fast ship" speed="12.22" length="9.59" shape="3149.56,3422.39 3152.03,3423.58 3153.94,3423.83 3155.98,3423.55 3158.82,3423.17"/>
    </edge>
    <edge id=":7100697625_8" function="internal">
        <lane id=":7100697625_8_0" index="0" disallow="tram rail_urban rail rail_electric rail_fast ship" speed="3.65" length="2.52" shape="3149.56,3422.39 3151.00,3422.33 3151.75,3421.85 3151.77,3421.67"/>
    </edge>
    <edge id=":7100697625_11" function="internal">
        <lane id=":7100697625_11_0" index="0" disallow="tram rail_urban rail rail_electric rail_fast ship" speed="3.65" length="2.15" shape="3151.77,3421.67 3151.83,3420.96 3151.21,3419.65"/>
    </edge>
    <edge id=":7100697626_0" function="internal">
        <lane id=":7100697626_0_0" index="0" disallow="pedestrian bicycle tram rail_urban rail rail_electric rail_fast ship" speed="7.46" length="8.43" shape="3151.04,3419.55 3149.43,3418.23 3148.38,3416.58 3147.89,3414.59 3147.96,3412.25"/>
    </edge>
    <edge id=":7100697626_1" function="internal">
        <lane id=":7100697626_1_0" index="0" disallow="tram rail_urban rail rail_electric rail_fast ship" speed="3.65" length="4.67" shape="3151.04,3419.55 3149.60,3419.61 3148.84,3420.09 3148.77,3420.98 3149.39,3422.29"/>
    </edge>
    <edge id=":7100697626_2" function="internal">
        <lane id=":7100697626_2_0" index="0" disallow="pedestrian bicycle tram rail_urban rail rail_electric rail_fast ship" speed="5.20" length="7.05" shape="3145.86,3427.06 3146.42,3424.38 3147.19,3422.69 3148.18,3421.99 3149.39,3422.29"/>
    </edge>
    <edge id=":7100697626_3" function="internal">
        <lane id=":7100697626_3_0" index="0" disallow="pedestrian bicycle tram rail_urban rail rail_electric rail_fast ship" speed="27.78" length="14.96" shape="3145.86,3427.06 3147.96,3412.25"/>
        <lane id=":7100697626_3_1" index="1" disallow="pedestrian bicycle tram rail_urban rail rail_electric rail_fast ship" speed="27.78" length="14.96" shape="3142.70,3426.61 3144.79,3411.80"/>
    </edge>
    <edge id=":7100697629_0" function="internal">
        <lane id=":7100697629_0_0" index="0" disallow="tram rail_urban rail rail_electric rail_fast ship" speed="3.65" length="4.67" shape="3296.96,3416.42 3298.14,3415.59 3298.52,3414.78 3298.10,3413.99 3296.88,3413.22"/>
    </edge>
    <edge id=":7208334859_0" function="internal">
        <lane id=":7208334859_0_0" index="0" disallow="pedestrian bicycle tram rail_urban rail rail_electric rail_fast ship" speed="6.34" length="9.04" shape="3160.13,3360.78 3157.65,3360.40 3155.96,3359.31 3155.04,3357.51 3154.91,3355.01"/>
    </edge>
    <edge id=":7208334859_1" function="internal">
        <lane id=":7208334859_1_0" index="0" disallow="tram rail_urban rail rail_electric rail_fast ship" speed="3.65" length="4.67" shape="3160.13,3360.78 3158.92,3361.56 3158.52,3362.36 3158.91,3363.16 3160.10,3363.98"/>
    </edge>
    <edge id=":7208334859_2" function="internal">
        <lane id=":7208334859_2_0" index="0" disallow="pedestrian bicycle tram rail_urban rail rail_electric rail_fast ship" speed="6.86" length="9.47" shape="3153.58,3369.36 3154.18,3366.98 3155.47,3365.29 3157.44,3364.29 3160.10,3363.98"/>
    </edge>
    <edge id=":7208334859_3" function="internal">
        <lane id=":7208334859_3_0" index="0" disallow="pedestrian bicycle tram rail_urban rail rail_electric rail_fast ship" speed="27.78" length="14.40" shape="3153.58,3369.36 3154.91,3355.01"/>
        <lane id=":7208334859_3_1" index="1" disallow="pedestrian bicycle tram rail_urban rail rail_electric rail_fast ship" speed="27.78" length="14.40" shape="3150.39,3369.06 3151.72,3354.73"/>
    </edge>
    <edge id=":7208334860_0" function="internal">
        <lane id=":7208334860_0_0" index="0" disallow="tram rail_urban rail rail_electric rail_fast ship" speed="3.65" length="4.67" shape="3299.36,3365.26 3300.57,3364.47 3300.98,3363.67 3300.58,3362.87 3299.39,3362.06"/>
    </edge>
    <edge id=":7291770251_0" function="internal">
        <lane id=":7291770251_0_0" index="0" disallow="pedestrian bicycle tram rail_urban rail rail_electric rail_fast ship" speed="7.25" length="9.91" shape="3135.36,3370.22 3134.54,3372.52 3133.04,3374.15 3130.87,3375.13 3128.01,3375.45"/>
    </edge>
    <edge id=":7291770251_1" function="internal">
        <lane id=":7291770251_1_0" index="0" disallow="pedestrian bicycle tram rail_urban rail rail_electric rail_fast ship" speed="27.78" length="13.50" shape="3135.36,3370.22 3133.09,3383.57"/>
        <lane id=":7291770251_1_1" index="1" disallow="pedestrian bicycle tram rail_urban rail rail_electric rail_fast ship" speed="27.78" length="13.50" shape="3138.50,3370.79 3136.25,3384.07"/>
    </edge>
    <edge id=":7291770251_3" function="internal">
        <lane id=":7291770251_3_0" index="0" disallow="pedestrian bicycle tram rail_urban rail rail_electric rail_fast ship" speed="5.99" length="8.36" shape="3128.00,3378.65 3130.51,3378.96 3132.20,3379.89 3133.06,3381.42 3133.09,3383.57"/>
    </edge>
    <edge id=":7291770251_4" function="internal">
        <lane id=":7291770251_4_0" index="0" disallow="tram rail_urban rail rail_electric rail_fast ship" speed="3.65" length="4.67" shape="3128.00,3378.65 3129.20,3377.85 3129.60,3377.05 3129.21,3376.25 3128.01,3375.45"/>
    </edge>
    <edge id=":7291770254_0" function="internal">
        <lane id=":7291770254_0_0" index="0" disallow="tram rail_urban rail rail_electric rail_fast ship" speed="3.65" length="4.67" shape="2965.62,3397.16 2964.54,3398.12 2964.26,3398.96 2964.76,3399.70 2966.06,3400.33"/>
    </edge>
    <edge id=":7479074655_0" function="internal">
        <lane id=":7479074655_0_0" index="0" disallow="tram rail_urban rail rail_electric rail_fast ship" speed="3.65" length="4.67" shape="3251.15,3332.34 3251.49,3330.94 3251.24,3330.08 3250.40,3329.76 3248.98,3329.98"/>
    </edge>
    <edge id=":7479074662_0" function="internal">
        <lane id=":7479074662_0_0" index="0" disallow="tram rail_urban rail rail_electric rail_fast ship" speed="3.65" length="4.67" shape="3189.71,3279.30 3188.96,3278.06 3188.18,3277.63 3187.36,3278.00 3186.51,3279.16"/>
    </edge>

    <edge id="-655019293#0" from="7100697624" to="6137413199" priority="3" type="highway.residential">
        <lane id="-655019293#0_0" index="0" disallow="tram rail_urban rail rail_electric rail_fast ship" speed="13.89" length="0.20" shape="3146.51,3452.82 3146.31,3452.83"/>
    </edge>
    <edge id="-655019293#1" from="6137413195" to="7100697624" priority="3" type="highway.residential" shape="3430.51,3456.67 3358.81,3449.81 3335.54,3447.59 3246.14,3445.95 3232.16,3445.69 3183.47,3450.99 3151.65,3453.94">
        <lane id="-655019293#1_0" index="0" disallow="tram rail_urban rail rail_electric rail_fast ship" speed="13.89" length="272.46" shape="3430.66,3455.07 3358.96,3448.22 3335.63,3445.99 3246.17,3444.35 3232.09,3444.08 3183.31,3449.39 3159.04,3451.65"/>
    </edge>
    <edge id="-760110506#0" from="7100697625" to="7100697624" priority="3" type="highway.residential">
        <lane id="-760110506#0_0" index="0" disallow="tram rail_urban rail rail_electric rail_fast ship" speed="13.89" length="17.74" shape="3150.48,3428.60 3150.18,3446.35"/>
    </edge>
    <edge id="-760110506#1" from="7100697626" to="7100697625" priority="3" type="highway.residential">
        <lane id="-760110506#1_0" index="0" disallow="tram rail_urban rail rail_electric rail_fast ship" speed="13.89" length="0.20" shape="3149.39,3422.29 3149.56,3422.39"/>
    </edge>
    <edge id="-760110507" from="7100697629" to="7100697625" priority="3" type="highway.residential" shape="3296.92,3414.82 3259.34,3415.73 3228.21,3415.86 3152.19,3422.11">
        <lane id="-760110507_0" index="0" disallow="tram rail_urban rail rail_electric rail_fast ship" speed="13.89" length="138.57" shape="3296.88,3413.22 3259.31,3414.13 3228.14,3414.26 3158.56,3419.98"/>
    </edge>
    <edge id="-772140301" from="7208334860" to="7208334859" priority="3" type="highway.residential">
        <lane id="-772140301_0" index="0" disallow="tram rail_urban rail rail_electric rail_fast ship" speed="13.89" length="139.27" shape="3299.39,3362.06 3160.13,3360.78"/>
    </edge>
    <edge id="-780935947" from="7291770251" to="7291770254" priority="3" type="highway.residential" shape="3135.73,3377.08 3125.81,3377.04 3098.10,3380.81 3025.54,3388.77 2995.57,3394.67 2965.84,3398.74">
        <lane id="-780935947_0" index="0" disallow="tram rail_urban rail rail_electric rail_fast ship" speed="13.89" length="163.93" shape="3128.01,3375.45 3125.70,3375.44 3097.91,3379.22 3025.29,3387.19 2995.31,3393.09 2965.62,3397.16"/>
    </edge>
    <edge id="-799716358" from="7479074655" to="7479074662" priority="3" type="highway.residential" shape="3250.06,3331.16 3247.81,3333.24 3195.84,3341.12 3191.64,3338.79 3189.37,3335.71 3188.06,3307.46 3187.47,3294.83 3188.11,3279.23">
        <lane id="-799716358_0" index="0" disallow="tram rail_urban rail rail_electric rail_fast ship" speed="13.89" length="116.92" shape="3248.98,3329.98 3247.08,3331.73 3196.14,3339.46 3192.72,3337.56 3190.95,3335.15 3189.66,3307.38 3189.07,3294.83 3189.71,3279.30"/>
    </edge>