<?xml version="1.0" encoding="UTF-8"?>

<!-- generated on Mon Mar 22 11:15:06 2021 by Eclipse SUMO polyconvert Version 1.8.0
<configuration xmlns:xsi="http://www.w3.org/2001/XMLSchema-instance" xsi:noNamespaceSchemaLocation="http://sumo.dlr.de/xsd/polyconvertConfiguration.xsd">

    <input>
        <net-file value="sarakkiSmall.net.xml"/>
        <osm-files value="sarakkiSmall.osm"/>
        <type-file value="osmPolyconvert.typ.xml"/>
    </input>

    <output>
        <output-file value="sarakkiSmall.poly.xml"/>
    </output>

    <processing>
        <poi-layer-offset value="5"/>
    </processing>

</configuration>
-->

<additional xmlns:xsi="http://www.w3.org/2001/XMLSchema-instance" xsi:noNamespaceSchemaLocation="http://sumo.dlr.de/xsd/additional_file.xsd">
    <location netOffset="-776096.49,-1424803.84" convBoundary="-0.00,-0.00,4499.91,4637.10" origBoundary="77.544030,12.876128,77.585763,12.917733" projParameter="+proj=utm +zone=43 +ellps=WGS84 +datum=WGS84 +units=m +no_defs"/>

    <poly id="331975438" type="building" color="255,230,230" fill="1" layer="-1.00" shape="3119.314748,3420.230609 3151.190982,3425.188833 3130.114772,3559.176133 3098.238585,3554.228973 3118.305541,3426.652017 3119.314748,3420.230609"/>
    <poly id="334633598" type="residential" color="235,235,227" fill="1" layer="-3.00" shape="4478.277339,3724.433999 4484.097102,3402.646901 3151.268236,3401.267823 3131.270518,3531.668275 3115.951771,3714.121493 3113.893584,3846.650322 3112.138583,3956.544512 3172.202477,4270.843224 3185.740822,4344.604378 3200.337214,4558.364735 3238.224508,4611.194169 3601.481410,4606.954777 3642.983817,4565.938125 4486.488329,4560.326692 4483.750329,4275.404326 4478.011609,4077.937076 4478.277339,3724.433999"/>
    <poly id="347540133" type="building" color="255,230,230" fill="1" layer="-1.00" shape="3208.929606,3445.705207 3218.704554,3445.537687 3218.533245,3435.562094 3208.747436,3435.729506 3208.929606,3445.705207"/>
    <poly id="347540197" type="building" color="255,230,230" fill="1" layer="-1.00" shape="3191.281179,3447.011351 3198.199670,3446.892631 3198.018274,3436.839450 3191.099780,3436.958170 3191.281179,3447.011351"/>
    <poly id="347540307" type="building" color="255,230,230" fill="1" layer="-1.00" shape="3169.708820,3435.713912 3190.040722,3435.364558 3189.815399,3423.196609 3169.494347,3423.546074 3169.708820,3435.713912"/>
    <poly id="347540374" type="building" color="255,230,230" fill="1" layer="-1.00" shape="3183.142805,3447.494196 3189.996146,3447.374821 3189.816636,3437.133473 3182.963181,3437.263917 3183.142805,3447.494196"/>
    <poly id="347540434" type="building" color="255,230,230" fill="1" layer="-1.00" shape="3166.106246,3447.345288 3178.151086,3447.145194 3177.963380,3436.638090 3165.918425,3436.849254 3166.106246,3447.345288"/>
    <poly id="347540507" type="building" color="255,230,230" fill="1" layer="-1.00" shape="3179.195381,3464.269556 3188.210032,3464.116532 3188.052205,3454.960240 3179.026693,3455.113156 3179.195381,3464.269556"/>
    <poly id="347540575" type="building" color="255,230,230" fill="1" layer="-1.00" shape="3217.034492,3463.697497 3224.919572,3463.566352 3224.711315,3451.863501 3216.826121,3452.005716 3217.034492,3463.697497"/>
    <poly id="348083088" type="building" color="255,230,230" fill="1" layer="-1.00" shape="3040.287095,3508.416242 3081.297102,3507.831555 3080.706659,3467.122082 3039.696593,3467.706781 3040.287095,3508.416242"/>
    <poly id="348110208" type="building" color="255,230,230" fill="1" layer="-1.00" shape="3165.050055,3355.688004 3201.418984,3356.628765 3201.738343,3344.289168 3165.369397,3343.348409 3165.050055,3355.688004"/>
    <poly id="348110232" type="building" color="255,230,230" fill="1" layer="-1.00" shape="3194.350267,3373.870927 3208.707997,3374.767831 3209.377755,3364.302544 3195.020130,3363.394572 3194.350267,3373.870927"/>
    <poly id="348110544" type="building" color="255,230,230" fill="1" layer="-1.00" shape="3171.829554,3418.089979 3189.633866,3417.482780 3189.289704,3407.416896 3171.474527,3408.023987 3171.829554,3418.089979"/>
    <poly id="348110972" type="building" color="255,230,230" fill="1" layer="-1.00" shape="3220.701402,3415.381515 3229.645588,3415.759143 3230.083112,3405.712175 3221.128176,3405.323369 3220.701402,3415.381515"/>
    <poly id="348111466" type="building" color="255,230,230" fill="1" layer="-1.00" shape="3191.246232,3415.882781 3200.714495,3415.977848 3200.829077,3404.566056 3191.360811,3404.470990 3191.246232,3415.882781"/>
    <poly id="348111802" type="building" color="255,230,230" fill="1" layer="-1.00" shape="3213.103534,3375.011221 3226.889563,3375.526021 3227.317149,3364.305557 3213.531114,3363.790758 3213.103534,3375.011221"/>
    <poly id="348112290" type="building" color="255,230,230" fill="1" layer="-1.00" shape="3164.095782,3373.943555 3190.699462,3375.162646 3191.196928,3364.551723 3164.593237,3363.332633 3164.095782,3373.943555"/>
    <poly id="348113121" type="building" color="255,230,230" fill="1" layer="-1.00" shape="3203.265515,3414.985043 3218.983299,3414.534029 3218.648073,3402.497811 3202.930393,3402.937758 3203.265515,3414.985043"/>
    <poly id="348113564" type="building" color="255,230,230" fill="1" layer="-1.00" shape="3230.730148,3374.800772 3254.458326,3375.802864 3254.954962,3364.195648 3231.215916,3363.193448 3230.730148,3374.800772"/>
    <poly id="352540583" type="building" color="255,230,230" fill="1" layer="-1.00" shape="3169.449526,3462.621937 3178.095113,3462.454135 3177.956044,3455.755523 3169.321313,3455.923435 3169.449526,3462.621937"/>
    <poly id="352540597" type="building" color="255,230,230" fill="1" layer="-1.00" shape="3215.097641,3464.087630 3214.903684,3452.041761 3207.420573,3452.154806 3207.614422,3464.211744 3215.097641,3464.087630"/>
    <poly id="97200769" type="residential" color="235,235,227" fill="1" layer="-3.00" shape="3162.508630,3342.744062 3258.521909,3342.058692 3271.991643,3263.775610 3166.518267,3265.683326 3162.508630,3342.744062"/>
    <poi id="8196824767" type="tourism" color="207,245,201" layer="3.00" x="3177.94" y="3378.55"/>
</additional>
