<?xml version="1.0" encoding="UTF-8"?>

<!-- generated on Sun Mar 21 21:32:34 2021 by Eclipse SUMO duarouter Version 1.8.0
<configuration xmlns:xsi="http://www.w3.org/2001/XMLSchema-instance" xsi:noNamespaceSchemaLocation="http://sumo.dlr.de/xsd/duarouterConfiguration.xsd">

    <input>
        <net-file value="/usr/local/Cellar/sumo/1.8.0/share/sumo/tools/2021-03-21-21-32-21/osm.net.xml"/>
        <route-files value="/usr/local/Cellar/sumo/1.8.0/share/sumo/tools/2021-03-21-21-32-21/osm.passenger.trips.xml"/>
    </input>

    <output>
        <output-file value="/usr/local/Cellar/sumo/1.8.0/share/sumo/tools/2021-03-21-21-32-21/osm.passenger.trips.xml.tmp"/>
        <write-trips value="true"/>
    </output>

    <time>
        <begin value="0"/>
        <end value="3600"/>
    </time>

    <report>
        <no-warnings value="true"/>
        <ignore-errors value="true"/>
        <no-step-log value="true"/>
    </report>

</configuration>
-->

<routes xmlns:xsi="http://www.w3.org/2001/XMLSchema-instance" xsi:noNamespaceSchemaLocation="http://sumo.dlr.de/xsd/routes_file.xsd">
    <vType id="veh_passenger" vClass="passenger"/>
    <trip id="veh0" type="veh_passenger" depart="0.00" departLane="best" from="244286191" to="-172855328#3"/>
    <trip id="veh1" type="veh_passenger" depart="7.70" departLane="best" departSpeed="max" from="691146214#0" to="-212564650#2"/>
    <trip id="veh3" type="veh_passenger" depart="23.09" departLane="best" from="-48627082#2" to="183869709#4-AddedOnRampEdge"/>
    <trip id="veh4" type="veh_passenger" depart="30.78" departLane="best" departSpeed="max" from="-172855328#12" to="-554221425"/>
    <trip id="veh5" type="veh_passenger" depart="38.48" departLane="best" from="48627072#0" to="212204470"/>
    <trip id="veh6" type="veh_passenger" depart="46.17" departLane="best" from="-48627082#4" to="212204501#1"/>
    <trip id="veh7" type="veh_passenger" depart="53.87" departLane="best" departSpeed="max" from="554226225#0" to="-172851194#3"/>
    <trip id="veh8" type="veh_passenger" depart="61.56" departLane="best" departSpeed="max" from="554226225#0" to="48627074#7"/>
    <trip id="veh9" type="veh_passenger" depart="69.26" departLane="best" departSpeed="max" from="-775912759" to="-48627082#3"/>
    <trip id="veh10" type="veh_passenger" depart="76.95" departLane="best" departSpeed="max" from="797278840" to="172851175#2-AddedOnRampEdge"/>
    <trip id="veh11" type="veh_passenger" depart="84.65" departLane="best" from="59151470#4" to="212564650#2"/>
    <trip id="veh12" type="veh_passenger" depart="92.35" departLane="best" departSpeed="max" from="554226225#0" to="48627082#4"/>
    <trip id="veh15" type="veh_passenger" depart="115.43" departLane="best" departSpeed="max" from="554226228" to="23057864"/>
    <trip id="veh16" type="veh_passenger" depart="123.13" departLane="best" from="59151513#3" to="212204500"/>
    <trip id="veh17" type="veh_passenger" depart="130.82" departLane="best" from="-212204498#1" to="-554226228"/>
    <trip id="veh18" type="veh_passenger" depart="138.52" departLane="best" departSpeed="max" from="-212204501#1" to="-797278838"/>
    <trip id="veh19" type="veh_passenger" depart="146.21" departLane="best" from="244286191" to="172851175#4"/>
    <trip id="veh21" type="veh_passenger" depart="161.60" departLane="best" from="-554226225#1" to="775912756"/>
    <trip id="veh22" type="veh_passenger" depart="169.30" departLane="best" from="48627071#1" to="212564650#4"/>
    <trip id="veh23" type="veh_passenger" depart="176.99" departLane="best" from="-48627073#2" to="48627082#4"/>
    <trip id="veh24" type="veh_passenger" depart="184.69" departLane="best" from="-48627071#1" to="172851175#4"/>
    <trip id="veh25" type="veh_passenger" depart="192.39" departLane="best" departSpeed="max" from="797278844" to="244286191"/>
    <trip id="veh26" type="veh_passenger" depart="200.08" departLane="best" departSpeed="max" from="212204493#0" to="48627073#6"/>
    <trip id="veh27" type="veh_passenger" depart="207.78" departLane="best" from="59151470#2" to="554221426#1"/>
    <trip id="veh28" type="veh_passenger" depart="215.47" departLane="best" from="-48627083#4" to="-172855328#8"/>
    <trip id="veh29" type="veh_passenger" depart="223.17" departLane="best" departSpeed="max" from="-687319740#1" to="-691146208#2"/>
    <trip id="veh30" type="veh_passenger" depart="230.86" departLane="best" from="-48627079#2" to="775912759"/>
    <trip id="veh31" type="veh_passenger" depart="238.56" departLane="best" from="48627073#2" to="172851194#1"/>
    <trip id="veh32" type="veh_passenger" depart="246.25" departLane="best" from="691146214#3" to="183869709#0"/>
    <trip id="veh33" type="veh_passenger" depart="253.95" departLane="best" from="212204493#1" to="-687910527#3"/>
    <trip id="veh34" type="veh_passenger" depart="261.64" departLane="best" from="212204503#0" to="691146208#0"/>
    <trip id="veh35" type="veh_passenger" depart="269.34" departLane="best" from="172851175#1" to="-554226225#1"/>
    <trip id="veh37" type="veh_passenger" depart="284.73" departLane="best" departSpeed="max" from="-212204500" to="-212204485"/>
    <trip id="veh38" type="veh_passenger" depart="292.43" departLane="best" from="554221425" to="172855328#12"/>
    <trip id="veh40" type="veh_passenger" depart="307.82" departLane="best" departSpeed="max" from="797278841" to="59151514#3"/>
    <trip id="veh41" type="veh_passenger" depart="315.51" departLane="best" departSpeed="max" from="-172851194#6" to="48627081"/>
    <trip id="veh42" type="veh_passenger" depart="323.21" departLane="best" from="48627075#3" to="190708466#1"/>
    <trip id="veh43" type="veh_passenger" depart="330.90" departLane="best" from="-554226225#1" to="244286191"/>
    <trip id="veh44" type="veh_passenger" depart="338.60" departLane="best" from="-212564650#0" to="172855328#7"/>
    <trip id="veh45" type="veh_passenger" depart="346.29" departLane="best" departSpeed="max" from="172855328#0" to="797278842"/>
    <trip id="veh46" type="veh_passenger" depart="353.99" departLane="best" from="687319740#0" to="-691146208#0"/>
    <trip id="veh47" type="veh_passenger" depart="361.68" departLane="best" from="183869709#2" to="-48627084#1"/>
    <trip id="veh48" type="veh_passenger" depart="369.38" departLane="best" from="691146214#2" to="687319740#0"/>
    <trip id="veh49" type="veh_passenger" depart="377.08" departLane="best" departSpeed="max" from="237025641#0" to="-48627082#1"/>
    <trip id="veh50" type="veh_passenger" depart="384.77" departLane="best" departSpeed="max" from="492214420" to="190708466#1"/>
    <trip id="veh51" type="veh_passenger" depart="392.47" departLane="best" from="492214420-AddedOffRampEdge" to="190708466#1"/>
    <trip id="veh52" type="veh_passenger" depart="400.16" departLane="best" from="-172855328#1" to="691146214#5-AddedOffRampEdge"/>
    <trip id="veh53" type="veh_passenger" depart="407.86" departLane="best" from="691146208#0" to="59151470#7"/>
    <trip id="veh54" type="veh_passenger" depart="415.55" departLane="best" departSpeed="max" from="-59151514#4" to="-212204495#0"/>
    <trip id="veh55" type="veh_passenger" depart="423.25" departLane="best" from="691146208#0" to="775912759"/>
    <trip id="veh56" type="veh_passenger" depart="430.94" departLane="best" departSpeed="max" from="-212204500" to="183869709#2-AddedOnRampEdge"/>
    <trip id="veh57" type="veh_passenger" depart="438.64" departLane="best" departSpeed="max" from="492214420" to="-48627074#8"/>
    <trip id="veh58" type="veh_passenger" depart="446.33" departLane="best" from="172855328#9" to="212204474"/>
    <trip id="veh60" type="veh_passenger" depart="461.73" departLane="best" from="212204469#1" to="48627082#4"/>
    <trip id="veh61" type="veh_passenger" depart="469.42" departLane="best" from="-48627076#2" to="-797278844"/>
    <trip id="veh62" type="veh_passenger" depart="477.12" departLane="best" from="172851194#0" to="190708466#1"/>
    <trip id="veh63" type="veh_passenger" depart="484.81" departLane="best" departSpeed="max" from="-212564650#4" to="-554226227"/>
    <trip id="veh64" type="veh_passenger" depart="492.51" departLane="best" from="-48627083#4" to="-554226226#0"/>
    <trip id="veh65" type="veh_passenger" depart="500.20" departLane="best" from="-48627084#2" to="48627069#0"/>
    <trip id="veh66" type="veh_passenger" depart="507.90" departLane="best" from="691146214#5-AddedOffRampEdge" to="212204498#2"/>
    <trip id="veh67" type="veh_passenger" depart="515.59" departLane="best" departSpeed="max" from="554226225#0" to="-48627084#8"/>
    <trip id="veh68" type="veh_passenger" depart="523.29" departLane="best" departSpeed="max" from="-212204501#1" to="172855328#3"/>
    <trip id="veh69" type="veh_passenger" depart="530.98" departLane="best" from="-48627074#8" to="183869708"/>
    <trip id="veh71" type="veh_passenger" depart="546.37" departLane="best" from="-544988420#0" to="691146214#5"/>
    <trip id="veh72" type="veh_passenger" depart="554.07" departLane="best" from="172851194#3" to="59151514#4"/>
    <trip id="veh73" type="veh_passenger" depart="561.77" departLane="best" from="212204482" to="-212204493#0"/>
    <trip id="veh75" type="veh_passenger" depart="577.16" departLane="best" departSpeed="max" from="797278841" to="691146214#5-AddedOffRampEdge"/>
    <trip id="veh76" type="veh_passenger" depart="584.85" departLane="best" from="59151470#4" to="-48627083#4"/>
    <trip id="veh77" type="veh_passenger" depart="592.55" departLane="best" from="183869709#0" to="-554226225#0"/>
    <trip id="veh78" type="veh_passenger" depart="600.24" departLane="best" from="172851175#1" to="-212204495#0"/>
    <trip id="veh79" type="veh_passenger" depart="607.94" departLane="best" departSpeed="max" from="172855328#0" to="172855328#12"/>
    <trip id="veh81" type="veh_passenger" depart="623.33" departLane="best" departSpeed="max" from="212204493#0" to="48627079#1"/>
    <trip id="veh83" type="veh_passenger" depart="638.72" departLane="best" departSpeed="max" from="797278841" to="212204500"/>
    <trip id="veh84" type="veh_passenger" depart="646.42" departLane="best" from="-212204472" to="212204501#0"/>
    <trip id="veh85" type="veh_passenger" depart="654.11" departLane="best" from="183869709#2-AddedOnRampEdge" to="59151513#5"/>
    <trip id="veh87" type="veh_passenger" depart="669.50" departLane="best" from="-212204498#1" to="-48627084#5"/>
    <trip id="veh88" type="veh_passenger" depart="677.20" departLane="best" from="212564650#3" to="48627072#0"/>
    <trip id="veh89" type="veh_passenger" depart="684.89" departLane="best" from="-48627084#1" to="-48627074#3"/>
    <trip id="veh90" type="veh_passenger" depart="692.59" departLane="best" departSpeed="max" from="691146214#0" to="-59151513#2"/>
    <trip id="veh91" type="veh_passenger" depart="700.28" departLane="best" from="172851175#2-AddedOnRampEdge" to="212204501#0"/>
    <trip id="veh93" type="veh_passenger" depart="715.67" departLane="best" from="-48627084#2" to="172851194#1"/>
    <trip id="veh94" type="veh_passenger" depart="723.37" departLane="best" departSpeed="max" from="-687319740#1" to="48627084#6"/>
    <trip id="veh95" type="veh_passenger" depart="731.07" departLane="best" departSpeed="max" from="-212204486" to="183869709#0"/>
    <trip id="veh96" type="veh_passenger" depart="738.76" departLane="best" departSpeed="max" from="-212204486" to="-554226225#0"/>
    <trip id="veh97" type="veh_passenger" depart="746.46" departLane="best" from="-554226224#1" to="775912756"/>
    <trip id="veh98" type="veh_passenger" depart="754.15" departLane="best" from="691146208#1" to="687319740#1"/>
    <trip id="veh101" type="veh_passenger" depart="777.24" departLane="best" from="48627073#0" to="-172851194#4"/>
    <trip id="veh102" type="veh_passenger" depart="784.93" departLane="best" departSpeed="max" from="554226227" to="-797278843"/>
    <trip id="veh104" type="veh_passenger" depart="800.32" departLane="best" from="-212564618" to="212204482"/>
    <trip id="veh105" type="veh_passenger" depart="808.02" departLane="best" departSpeed="max" from="-554226229" to="212564650#2"/>
    <trip id="veh106" type="veh_passenger" depart="815.71" departLane="best" from="48627083#6" to="-554226223#0"/>
    <trip id="veh107" type="veh_passenger" depart="823.41" departLane="best" from="183869709#1" to="691146214#2"/>
    <trip id="veh108" type="veh_passenger" depart="831.11" departLane="best" from="59151470#3" to="-212578615#1"/>
    <trip id="veh110" type="veh_passenger" depart="846.50" departLane="best" from="-172851194#2" to="544988421"/>
    <trip id="veh111" type="veh_passenger" depart="854.19" departLane="best" from="244286191" to="-687910527#3"/>
    <trip id="veh112" type="veh_passenger" depart="861.89" departLane="best" from="172851184#0" to="-172851194#5"/>
    <trip id="veh113" type="veh_passenger" depart="869.58" departLane="best" from="-212204493#1" to="691146192"/>
    <trip id="veh114" type="veh_passenger" depart="877.28" departLane="best" departSpeed="max" from="691146214#0" to="212204472"/>
    <trip id="veh115" type="veh_passenger" depart="884.97" departLane="best" from="59151470#0" to="212204500"/>
    <trip id="veh117" type="veh_passenger" depart="900.36" departLane="best" departSpeed="max" from="-59151514#4" to="691146208#0"/>
    <trip id="veh118" type="veh_passenger" depart="908.06" departLane="best" from="554221426#1" to="59151514#3"/>
    <trip id="veh119" type="veh_passenger" depart="915.76" departLane="best" departSpeed="max" from="691146214#0" to="-554226225#0"/>
    <trip id="veh120" type="veh_passenger" depart="923.45" departLane="best" from="492214420-AddedOffRampEdge" to="691146192"/>
    <trip id="veh123" type="veh_passenger" depart="946.54" departLane="best" departSpeed="max" from="554226225#0" to="691146192"/>
    <trip id="veh124" type="veh_passenger" depart="954.23" departLane="best" departSpeed="max" from="-172855328#12" to="48627083#3"/>
    <trip id="veh125" type="veh_passenger" depart="961.93" departLane="best" from="554226224#1" to="59151514#4"/>
    <trip id="veh126" type="veh_passenger" depart="969.62" departLane="best" departSpeed="max" from="554226225#0" to="-691146208#2"/>
    <trip id="veh127" type="veh_passenger" depart="977.32" departLane="best" from="544988420#0" to="-48627073#2"/>
    <trip id="veh128" type="veh_passenger" depart="985.01" departLane="best" from="-48627082#5" to="59151470#7"/>
    <trip id="veh129" type="veh_passenger" depart="992.71" departLane="best" from="172855328#1" to="-797278844"/>
    <trip id="veh130" type="veh_passenger" depart="1000.40" departLane="best" from="-172855328#11" to="-48627084#9"/>
    <trip id="veh131" type="veh_passenger" depart="1008.10" departLane="best" departSpeed="max" from="-775912756" to="59151514#4"/>
    <trip id="veh133" type="veh_passenger" depart="1023.49" departLane="best" departSpeed="max" from="797278843" to="190708466#1"/>
    <trip id="veh134" type="veh_passenger" depart="1031.19" departLane="best" departSpeed="max" from="797278841" to="-48627084#1"/>
    <trip id="veh135" type="veh_passenger" depart="1038.88" departLane="best" departSpeed="max" from="797278840" to="-691146208#1"/>
    <trip id="veh136" type="veh_passenger" depart="1046.58" departLane="best" from="-212564618" to="172855328#5"/>
    <trip id="veh138" type="veh_passenger" depart="1061.97" departLane="best" departSpeed="max" from="237025641#0" to="190708466#0"/>
    <trip id="veh139" type="veh_passenger" depart="1069.66" departLane="best" from="212204469#0" to="48627079#2"/>
    <trip id="veh140" type="veh_passenger" depart="1077.36" departLane="best" from="48627074#1" to="172851175#2"/>
    <trip id="veh141" type="veh_passenger" depart="1085.05" departLane="best" departSpeed="max" from="-687319740#1" to="59151513#3"/>
    <trip id="veh142" type="veh_passenger" depart="1092.75" departLane="best" departSpeed="max" from="48627084#0" to="-797278843"/>
    <trip id="veh143" type="veh_passenger" depart="1100.45" departLane="best" from="-687319740#0" to="172851194#6"/>
    <trip id="veh144" type="veh_passenger" depart="1108.14" departLane="best" from="172851175#1" to="-797278841"/>
    <trip id="veh145" type="veh_passenger" depart="1115.84" departLane="best" from="-212578615#1" to="172855328#12"/>
    <trip id="veh146" type="veh_passenger" depart="1123.53" departLane="best" departSpeed="max" from="775912758" to="48627072#1"/>
    <trip id="veh147" type="veh_passenger" depart="1131.23" departLane="best" departSpeed="max" from="691146214#0" to="212578615#0"/>
    <trip id="veh148" type="veh_passenger" depart="1138.92" departLane="best" departSpeed="max" from="-59151514#4" to="212204473"/>
    <trip id="veh149" type="veh_passenger" depart="1146.62" departLane="best" from="-172851194#0" to="-797278840"/>
    <trip id="veh150" type="veh_passenger" depart="1154.31" departLane="best" from="172851184#0" to="212204500"/>
    <trip id="veh151" type="veh_passenger" depart="1162.01" departLane="best" from="48627073#2" to="183869709#0"/>
    <trip id="veh152" type="veh_passenger" depart="1169.70" departLane="best" from="172851194#2" to="-554226225#0"/>
    <trip id="veh153" type="veh_passenger" depart="1177.40" departLane="best" from="172855328#8" to="691146208#2"/>
    <trip id="veh154" type="veh_passenger" depart="1185.09" departLane="best" departSpeed="max" from="-212204500" to="190708466#0"/>
    <trip id="veh155" type="veh_passenger" depart="1192.79" departLane="best" departSpeed="max" from="554226227" to="48627084#6"/>
    <trip id="veh156" type="veh_passenger" depart="1200.49" departLane="best" from="48627074#6" to="-554226227"/>
    <trip id="veh157" type="veh_passenger" depart="1208.18" departLane="best" from="-48627076#0" to="-172855328#2"/>
    <trip id="veh158" type="veh_passenger" depart="1215.88" departLane="best" from="59151470#4" to="-212204498#3"/>
    <trip id="veh159" type="veh_passenger" depart="1223.57" departLane="best" from="183869709#2" to="-59151513#1"/>
    <trip id="veh160" type="veh_passenger" depart="1231.27" departLane="best" from="48627073#4" to="-172851194#3"/>
    <trip id="veh161" type="veh_passenger" depart="1238.96" departLane="best" departSpeed="max" from="492214420" to="544988420#1"/>
    <trip id="veh162" type="veh_passenger" depart="1246.66" departLane="best" from="-212204503#1" to="172855328#12"/>
    <trip id="veh164" type="veh_passenger" depart="1262.05" departLane="best" departSpeed="max" from="172855328#0" to="59151470#1"/>
    <trip id="veh166" type="veh_passenger" depart="1277.44" departLane="best" from="212564650#3" to="797278842"/>
    <trip id="veh167" type="veh_passenger" depart="1285.14" departLane="best" departSpeed="max" from="691146214#0" to="212564650#4"/>
    <trip id="veh168" type="veh_passenger" depart="1292.83" departLane="best" departSpeed="max" from="48627084#0" to="183869709#4-AddedOnRampEdge"/>
    <trip id="veh169" type="veh_passenger" depart="1300.53" departLane="best" departSpeed="max" from="554226228" to="212204473"/>
    <trip id="veh170" type="veh_passenger" depart="1308.22" departLane="best" departSpeed="max" from="691146214#0" to="48627084#1"/>
    <trip id="veh171" type="veh_passenger" depart="1315.92" departLane="best" from="172855328#9" to="-59151514#3"/>
    <trip id="veh172" type="veh_passenger" depart="1323.61" departLane="best" departSpeed="max" from="492214420" to="190708466#1"/>
    <trip id="veh173" type="veh_passenger" depart="1331.31" departLane="best" from="237025641#1" to="-797278838"/>
    <trip id="veh175" type="veh_passenger" depart="1346.70" departLane="best" from="212204469#1" to="-48627076#2"/>
    <trip id="veh176" type="veh_passenger" depart="1354.39" departLane="best" from="48627082#4" to="-212204495#0"/>
    <trip id="veh177" type="veh_passenger" depart="1362.09" departLane="best" from="172851175#2" to="212204469#1"/>
    <trip id="veh178" type="veh_passenger" depart="1369.79" departLane="best" from="172851175#2-AddedOnRampEdge" to="-554226224#0"/>
    <trip id="veh181" type="veh_passenger" depart="1392.87" departLane="best" departSpeed="max" from="-797278842" to="48627084#7"/>
    <trip id="veh183" type="veh_passenger" depart="1408.26" departLane="best" from="212204474" to="212564650#1"/>
    <trip id="veh184" type="veh_passenger" depart="1415.96" departLane="best" from="-48627082#4" to="-554226225#1"/>
    <trip id="veh185" type="veh_passenger" depart="1423.65" departLane="best" from="172851188" to="-172855328#5"/>
    <trip id="veh186" type="veh_passenger" depart="1431.35" departLane="best" from="172855328#3" to="-48627074#8"/>
    <trip id="veh187" type="veh_passenger" depart="1439.04" departLane="best" from="237025641#0-AddedOffRampEdge" to="-172855328#4"/>
    <trip id="veh189" type="veh_passenger" depart="1454.43" departLane="best" departSpeed="max" from="-172855328#12" to="249195017"/>
    <trip id="veh191" type="veh_passenger" depart="1469.83" departLane="best" departSpeed="max" from="492214420" to="172851175#4"/>
    <trip id="veh192" type="veh_passenger" depart="1477.52" departLane="best" departSpeed="max" from="492214420" to="59151470#7"/>
    <trip id="veh193" type="veh_passenger" depart="1485.22" departLane="best" from="-544988420#1" to="-212564627"/>
    <trip id="veh194" type="veh_passenger" depart="1492.91" departLane="best" from="-172855328#1" to="190708466#1"/>
    <trip id="veh196" type="veh_passenger" depart="1508.30" departLane="best" departSpeed="max" from="797278838" to="-554221425"/>
    <trip id="veh197" type="veh_passenger" depart="1516.00" departLane="best" from="-172855328#10" to="-48627082#1"/>
    <trip id="veh198" type="veh_passenger" depart="1523.69" departLane="best" from="-212578615#0" to="48627069#1"/>
    <trip id="veh200" type="veh_passenger" depart="1539.08" departLane="best" from="-48627072#1" to="212564650#4"/>
    <trip id="veh201" type="veh_passenger" depart="1546.78" departLane="best" departSpeed="max" from="492214420" to="-48627074#0"/>
    <trip id="veh202" type="veh_passenger" depart="1554.48" departLane="best" departSpeed="max" from="554226227" to="797278845"/>
    <trip id="veh203" type="veh_passenger" depart="1562.17" departLane="best" from="-212564618" to="-172855328#3"/>
    <trip id="veh204" type="veh_passenger" depart="1569.87" departLane="best" departSpeed="max" from="-687319740#1" to="48627072#1"/>
    <trip id="veh205" type="veh_passenger" depart="1577.56" departLane="best" departSpeed="max" from="797278840" to="172851194#1"/>
    <trip id="veh206" type="veh_passenger" depart="1585.26" departLane="best" from="48627083#4" to="-212204501#0"/>
    <trip id="veh208" type="veh_passenger" depart="1600.65" departLane="best" departSpeed="max" from="-212204501#1" to="554221425"/>
    <trip id="veh209" type="veh_passenger" depart="1608.34" departLane="best" from="59151470#4" to="212564650#0"/>
    <trip id="veh211" type="veh_passenger" depart="1623.73" departLane="best" from="492214420-AddedOffRampEdge" to="172851175#3"/>
    <trip id="veh212" type="veh_passenger" depart="1631.43" departLane="best" from="172851184#0" to="172851175#4"/>
    <trip id="veh213" type="veh_passenger" depart="1639.12" departLane="best" from="-212204503#1" to="797278845"/>
    <trip id="veh214" type="veh_passenger" depart="1646.82" departLane="best" from="244286191" to="59151470#7"/>
    <trip id="veh215" type="veh_passenger" depart="1654.52" departLane="best" from="48627082#5" to="172855328#7"/>
    <trip id="veh216" type="veh_passenger" depart="1662.21" departLane="best" from="48627084#3" to="797278846"/>
    <trip id="veh217" type="veh_passenger" depart="1669.91" departLane="best" from="-554226226#1" to="59151470#3"/>
    <trip id="veh218" type="veh_passenger" depart="1677.60" departLane="best" from="212204469#0" to="183869709#2-AddedOnRampEdge"/>
    <trip id="veh219" type="veh_passenger" depart="1685.30" departLane="best" departSpeed="max" from="554226228" to="-212564650#2"/>
    <trip id="veh220" type="veh_passenger" depart="1692.99" departLane="best" from="172855328#2" to="212564650#4"/>
    <trip id="veh223" type="veh_passenger" depart="1716.08" departLane="best" departSpeed="max" from="-212204500" to="48627079#2"/>
    <trip id="veh226" type="veh_passenger" depart="1739.17" departLane="best" from="183869709#1" to="554226229"/>
    <trip id="veh227" type="veh_passenger" depart="1746.86" departLane="best" departSpeed="max" from="-212204500" to="-554226226#1"/>
    <trip id="veh228" type="veh_passenger" depart="1754.56" departLane="best" from="48627079#0" to="-797278844"/>
    <trip id="veh229" type="veh_passenger" depart="1762.25" departLane="best" from="212204501#0" to="183869709#2"/>
    <trip id="veh231" type="veh_passenger" depart="1777.64" departLane="best" departSpeed="max" from="492214420" to="172851175#2"/>
    <trip id="veh232" type="veh_passenger" depart="1785.34" departLane="best" from="48627082#2" to="-797278828"/>
    <trip id="veh233" type="veh_passenger" depart="1793.03" departLane="best" from="-48627074#5" to="-554226225#0"/>
    <trip id="veh234" type="veh_passenger" depart="1800.73" departLane="best" departSpeed="max" from="797278843" to="190708466#1"/>
    <trip id="veh235" type="veh_passenger" depart="1808.42" departLane="best" from="-59151513#0" to="-48627071#0"/>
    <trip id="veh236" type="veh_passenger" depart="1816.12" departLane="best" from="-48627074#1" to="-172855328#0"/>
    <trip id="veh238" type="veh_passenger" depart="1831.51" departLane="best" departSpeed="max" from="797278843" to="212204482"/>
    <trip id="veh239" type="veh_passenger" depart="1839.21" departLane="best" from="172855328#4" to="183869124"/>
    <trip id="veh240" type="veh_passenger" depart="1846.90" departLane="best" from="-48627074#4" to="-212204493#0"/>
    <trip id="veh241" type="veh_passenger" depart="1854.60" departLane="best" departSpeed="max" from="775912758" to="183869709#2"/>
    <trip id="veh242" type="veh_passenger" depart="1862.29" departLane="best" departSpeed="max" from="554226227" to="172851194#4"/>
    <trip id="veh243" type="veh_passenger" depart="1869.99" departLane="best" departSpeed="max" from="212204495#0" to="-797278843"/>
    <trip id="veh245" type="veh_passenger" depart="1885.38" departLane="best" departSpeed="max" from="492214420" to="212564650#3"/>
    <trip id="veh246" type="veh_passenger" depart="1893.07" departLane="best" from="544988421" to="-554226227"/>
    <trip id="veh247" type="veh_passenger" depart="1900.77" departLane="best" from="183869709#4" to="183869708"/>
    <trip id="veh248" type="veh_passenger" depart="1908.46" departLane="best" from="172851194#3" to="59151514#3"/>
    <trip id="veh249" type="veh_passenger" depart="1916.16" departLane="best" from="237025641#0-AddedOffRampEdge" to="212564650#4"/>
    <trip id="veh250" type="veh_passenger" depart="1923.86" departLane="best" from="48627084#8" to="797278828"/>
    <trip id="veh251" type="veh_passenger" depart="1931.55" departLane="best" from="48627073#6" to="-48627082#4"/>
    <trip id="veh252" type="veh_passenger" depart="1939.25" departLane="best" from="-48627073#5" to="-212204501#0"/>
    <trip id="veh253" type="veh_passenger" depart="1946.94" departLane="best" from="-172851194#1" to="183869708"/>
    <trip id="veh254" type="veh_passenger" depart="1954.64" departLane="best" from="212564650#2" to="-797278841"/>
    <trip id="veh255" type="veh_passenger" depart="1962.33" departLane="best" from="48627082#2" to="183869708"/>
    <trip id="veh257" type="veh_passenger" depart="1977.72" departLane="best" from="48627074#0" to="775912756"/>
    <trip id="veh258" type="veh_passenger" depart="1985.42" departLane="best" departSpeed="max" from="554226228" to="-212204498#2"/>
    <trip id="veh259" type="veh_passenger" depart="1993.11" departLane="best" departSpeed="max" from="492214420" to="212204498#1"/>
    <trip id="veh260" type="veh_passenger" depart="2000.81" departLane="best" from="48627078#0" to="48627074#8"/>
    <trip id="veh261" type="veh_passenger" depart="2008.50" departLane="best" departSpeed="max" from="775912758" to="183869709#4"/>
    <trip id="veh263" type="veh_passenger" depart="2023.90" departLane="best" from="48627074#6" to="-797278828"/>
    <trip id="veh264" type="veh_passenger" depart="2031.59" departLane="best" from="-172855328#7" to="48627084#9"/>
    <trip id="veh266" type="veh_passenger" depart="2046.98" departLane="best" from="212204503#1" to="244286191"/>
    <trip id="veh267" type="veh_passenger" depart="2054.68" departLane="best" from="183869709#1" to="-212578615#1"/>
    <trip id="veh268" type="veh_passenger" depart="2062.37" departLane="best" departSpeed="max" from="-797278842" to="172851175#2"/>
    <trip id="veh269" type="veh_passenger" depart="2070.07" departLane="best" from="48627074#5" to="59151514#1"/>
    <trip id="veh270" type="veh_passenger" depart="2077.76" departLane="best" from="554226226#0" to="212204474"/>
    <trip id="veh272" type="veh_passenger" depart="2093.15" departLane="best" from="-691146208#1" to="797278847"/>
    <trip id="veh274" type="veh_passenger" depart="2108.55" departLane="best" from="-48627074#6" to="172851175#4"/>
    <trip id="veh276" type="veh_passenger" depart="2123.94" departLane="best" departSpeed="max" from="492214420" to="-554226223#0"/>
    <trip id="veh277" type="veh_passenger" depart="2131.63" departLane="best" departSpeed="max" from="-212564650#4" to="797278847"/>
    <trip id="veh278" type="veh_passenger" depart="2139.33" departLane="best" departSpeed="max" from="237025641#0" to="-554226228"/>
    <trip id="veh280" type="veh_passenger" depart="2154.72" departLane="best" from="172855328#10" to="-48627074#2"/>
    <trip id="veh281" type="veh_passenger" depart="2162.41" departLane="best" departSpeed="max" from="554226228" to="183869709#4"/>
    <trip id="veh282" type="veh_passenger" depart="2170.11" departLane="best" from="48627083#5" to="183869709#4-AddedOnRampEdge"/>
    <trip id="veh283" type="veh_passenger" depart="2177.80" departLane="best" departSpeed="max" from="-554226229" to="59151504#1"/>