<?xml version="1.0" encoding="UTF-8"?>

<!-- generated on Sun Mar 21 21:32:33 2021 by Eclipse SUMO polyconvert Version 1.8.0
<configuration xmlns:xsi="http://www.w3.org/2001/XMLSchema-instance" xsi:noNamespaceSchemaLocation="http://sumo.dlr.de/xsd/polyconvertConfiguration.xsd">

    <input>
        <net-file value="osm.net.xml"/>
        <osm-files value="osm_bbox.osm.xml"/>
        <osm.keep-full-type value="true"/>
        <type-file value="/usr/local/opt/sumo/share/sumo/data/typemap/osmPolyconvert.typ.xml"/>
    </input>

    <output>
        <output-file value="osm.poly.xml"/>
    </output>

    <processing>
        <poi-layer-offset value="5"/>
    </processing>

    <report>
        <verbose value="true"/>
    </report>

</configuration>
-->

<additional xmlns:xsi="http://www.w3.org/2001/XMLSchema-instance" xsi:noNamespaceSchemaLocation="http://sumo.dlr.de/xsd/additional_file.xsd">
    <location netOffset="-774270.35,-1431111.40" convBoundary="0.00,-1435.54,1375.83,1380.69" origBoundary="77.527842,12.920194,77.540368,12.945656" projParameter="+proj=utm +zone=43 +ellps=WGS84 +datum=WGS84 +units=m +no_defs"/>

    <poly id="172895672" type="landuse.village_green" color="242,242,204" fill="1" layer="-3.00" shape="574.980585,839.063239 650.897293,926.511524 516.849216,893.967450 449.977581,863.395463 462.009871,837.944202 466.602274,858.800245 476.070430,871.900619 510.829556,885.672149 533.074089,885.892503 554.114559,876.138438 568.698950,857.210259 574.980585,839.063239"/>
    <poly id="172895674" type="landuse.village_green" color="242,242,204" fill="1" layer="-3.00" shape="551.490111,236.751976 553.677319,280.121599 527.909459,327.553617 520.310685,389.898988 532.963511,433.372247 563.562934,427.598166 591.976486,466.024934 623.530162,451.604061 667.113736,367.077756 689.369035,333.381432 673.821831,283.979369 665.474671,260.728297 579.981208,267.375488 572.432384,236.959364 551.490111,236.751976"/>
    <poly id="172895675" type="landuse.village_green" color="242,242,204" fill="1" layer="-3.00" shape="893.060358,703.150584 870.648294,851.170769 844.510345,848.310210 843.467646,864.771251 879.645673,1000.376985 908.909361,1040.550639 954.836548,1072.211209 1004.791192,874.175628 995.426381,850.681799 1010.357458,751.990484 1054.215171,743.880054 1062.347902,738.359602 1066.824142,724.932452 1057.893908,713.442248 1046.056775,709.317622 1022.994060,709.465128 1016.171950,725.149319 971.759278,722.439418 957.587391,741.338336 893.060358,703.150584"/>
    <poly id="172895676" type="landuse.village_green" color="242,242,204" fill="1" layer="-3.00" shape="534.730222,717.608955 547.848834,700.880125 563.099263,688.157419 577.037407,681.864142 595.517146,685.113458 613.933168,694.793510 622.436436,707.751542 624.730731,724.943005 622.702986,743.309285 610.534433,757.291203 597.500787,765.442019 576.523379,765.533061 554.159085,749.991380 546.239531,739.485504 534.730222,717.608955"/>
    <poly id="172895677" type="landuse.village_green" color="242,242,204" fill="1" layer="-3.00" shape="569.919004,777.898629 631.917723,860.869703 679.352749,916.819971 651.077338,864.524319 647.809216,841.522797 646.519650,663.778753 638.390757,648.101337 598.615453,611.288742 551.239712,681.907463 574.447330,672.606558 602.791352,674.182486 624.472953,687.403917 635.166565,708.320458 637.927435,738.689205 628.545652,760.701952 606.159314,774.781875 589.113002,778.088790 569.919004,777.898629"/>
    <poly id="172895678" type="natural.scrub" color="140,196,107" fill="1" layer="-4.00" shape="471.398037,898.587060 428.478040,1003.930551 470.256146,1013.875128 458.617610,1105.901940 531.627085,1100.990865 553.218739,1116.679901 541.958551,1262.530179 777.865631,1316.020936 840.103098,1374.719864 889.929550,1365.683409 1004.942851,1380.694967 995.223610,1360.119923 892.999938,1143.770709 892.511662,1149.212051 884.740466,1213.515067 877.336125,1274.766544 781.910961,1240.932525 627.780397,1179.728823 670.259005,1081.742349 681.196969,1034.174585 726.823085,1008.613653 661.968085,949.889261 471.398037,898.587060"/>
    <poly id="172895679" type="landuse.village_green" color="242,242,204" fill="1" layer="-3.00" shape="469.629119,597.004600 517.594310,687.208556 557.550754,616.948012 540.130291,614.174140 498.398801,599.459106 469.629119,597.004600"/>
    <poly id="172895683" type="landuse.village_green" color="242,242,204" fill="1" layer="-3.00" shape="1050.103088,351.857495 1161.790697,351.227885 1167.652825,463.995710 1146.721495,463.787948 1117.078388,549.315545 1059.684958,529.673238 1071.597688,472.573243 1050.836177,454.157925 1050.103088,351.857495"/>
    <poly id="172895685" type="landuse.landfill" color="194,194,130" fill="1" layer="-3.00" shape="726.339514,971.968915 770.394091,965.852579 773.371803,976.519868 766.189173,996.827547 740.279313,1014.779926 726.823085,1008.613653 681.196969,1034.174585 670.259005,1081.742349 627.780397,1179.728823 781.910961,1240.932525 877.336125,1274.766544 884.740466,1213.515067 892.511662,1149.212051 961.794309,1133.660567 919.463294,1078.789723 876.093458,1046.534694 845.953307,949.134255 823.862601,872.093000 676.298856,831.676591 726.339514,971.968915"/>
    <poly id="199314274" type="building.yes" color="255,230,230" fill="1" layer="-1.00" shape="598.953346,116.786378 599.293264,108.775461 549.470444,101.895027 548.097560,170.368108 557.197454,171.343771 565.299420,172.221000 570.395173,123.621229 571.258720,115.360901 598.953346,116.786378"/>
    <poly id="199316438" type="building.yes" color="255,230,230" fill="1" layer="-1.00" shape="733.519102,265.132886 740.767103,267.817102 752.663454,272.562028 757.332429,271.446003 761.676687,273.514768 762.601917,268.896900 766.402921,266.621051 790.985477,255.573827 794.407242,261.983755 806.013317,266.438021 811.095884,253.171827 812.582149,250.009621 805.328332,247.912010 798.579104,236.532118 791.861890,225.207893 791.315233,222.302275 794.900643,222.061073 800.485197,221.684713 798.928116,217.750689 777.142069,211.745440 772.956119,223.282618 775.538218,226.772951 769.638272,229.393291 746.878076,239.517691 741.361303,237.437311 741.019478,242.348766 734.499388,253.862816 733.519102,265.132886"/>
    <poly id="199316737" type="leisure.park" color="207,245,201" fill="1" layer="-2.00" shape="855.118862,90.444188 830.279029,87.995155 825.095303,137.756391 822.370313,189.213486 817.037073,196.001557 816.053135,207.636886 820.496327,207.393120 825.248897,202.226507 845.948661,202.808054 855.118862,90.444188"/>
    <poly id="199317592" type="leisure.pitch" color="207,245,201" fill="1" layer="-2.00" shape="598.891803,189.877360 577.473659,188.381191 574.739449,188.188073 577.421907,123.436213 602.506998,125.234355 599.057712,187.377307 598.891803,189.877360"/>
    <poly id="199317592#1" type="sport.soccer" color="79,230,125" fill="1" layer="-2.00" shape="598.891803,189.877360 577.473659,188.381191 574.739449,188.188073 577.421907,123.436213 602.506998,125.234355 599.057712,187.377307 598.891803,189.877360"/>
    <poly id="249194988" type="landuse.village_green" color="242,242,204" fill="1" layer="-3.00" shape="498.168864,713.671397 501.457920,719.227627 491.944635,734.796677 406.288875,875.327405 406.337579,878.084178 404.670071,873.241390 403.161080,860.064881 398.237395,846.345369 378.013885,816.357274 374.255349,807.774455 373.158711,802.295295 373.253638,797.093599 374.827299,788.386459 378.821340,775.375131 385.898218,758.044033 421.583053,701.367574 428.297223,685.582609 432.788832,673.860264 437.170866,657.852959 439.926967,641.574957 441.536649,620.459328 442.052800,600.129870 442.307545,600.719073 457.106547,635.778632 471.542827,664.702143 485.495898,690.886728 498.168864,713.671397"/>
    <poly id="249195009" type="landuse.village_green" color="242,242,204" fill="1" layer="-3.00" shape="531.937754,782.492560 555.548765,816.853579 556.337224,824.942092 555.580579,836.657148 553.580503,846.754815 550.834958,852.096300 546.606269,858.098330 540.357651,863.050890 533.339991,866.722845 526.870191,868.795158 519.189309,869.272545 510.150071,867.677560 501.856623,864.230298 495.190296,858.740237 490.136509,852.679470 486.745707,846.435924 485.167032,841.394759 484.252776,833.947034 484.538198,827.053594 486.226386,819.941590 490.249442,810.583473 497.491555,798.500947 513.602482,770.145618 519.490325,763.252321 531.937754,782.492560"/>
    <poly id="345950202" type="building.yes" color="255,230,230" fill="1" layer="-1.00" shape="368.500805,654.239718 376.426720,654.240690 376.433877,644.743183 368.507960,644.742211 368.500805,654.239718"/>
    <poly id="345950204" type="building.yes" color="255,230,230" fill="1" layer="-1.00" shape="322.404283,647.241418 330.859432,648.620225 332.776833,636.994157 324.321681,635.615350 322.404283,647.241418"/>
    <poly id="345950234" type="building.yes" color="255,230,230" fill="1" layer="-1.00" shape="378.743691,585.799149 389.775988,586.782842 391.043217,572.836824 380.000058,571.853023 378.743691,585.799149"/>
    <poly id="345950327" type="building.yes" color="255,230,230" fill="1" layer="-1.00" shape="312.240511,645.170469 321.738637,646.482109 323.187689,636.102252 313.689559,634.790612 312.240511,645.170469"/>
    <poly id="345950348" type="building.yes" color="255,230,230" fill="1" layer="-1.00" shape="334.446565,674.525000 335.078996,665.476461 331.010162,665.203731 330.377841,674.241201 334.446565,674.525000"/>
    <poly id="345950356" type="building.yes" color="255,230,230" fill="1" layer="-1.00" shape="320.169666,609.738199 337.398436,612.133670 338.765145,602.395024 321.536368,599.999553 320.169666,609.738199"/>
    <poly id="345950362" type="building.yes" color="255,230,230" fill="1" layer="-1.00" shape="341.825767,635.423304 342.618535,627.726824 334.841635,626.930338 334.038013,634.626711 341.825767,635.423304"/>
    <poly id="345950372" type="building.yes" color="255,230,230" fill="1" layer="-1.00" shape="351.524620,688.851849 360.762728,690.105585 361.932617,681.604768 352.694507,680.351032 351.524620,688.851849"/>
    <poly id="345950454" type="building.yes" color="255,230,230" fill="1" layer="-1.00" shape="378.943212,629.259739 396.333376,629.609001 396.518851,620.744216 379.117825,620.394847 378.943212,629.259739"/>
    <poly id="345950483" type="building.yes" color="255,230,230" fill="1" layer="-1.00" shape="382.756151,675.124962 382.138259,680.509662 402.776650,682.861451 403.394436,677.487819 382.756151,675.124962"/>
    <poly id="345950577" type="building.yes" color="255,230,230" fill="1" layer="-1.00" shape="384.248637,609.907532 396.230581,610.380366 396.403700,606.053929 384.421864,605.570026 384.248637,609.907532"/>
    <poly id="345950617" type="building.yes" color="255,230,230" fill="1" layer="-1.00" shape="366.213123,672.559131 365.608282,677.722571 379.999658,679.381547 380.604501,674.218107 366.213123,672.559131"/>
    <poly id="345950623" type="building.yes" color="255,230,230" fill="1" layer="-1.00" shape="377.450523,642.948928 383.918838,643.223278 384.354326,633.231886 383.388438,633.189116 383.418478,632.348136 377.916048,632.116556 377.450523,642.948928"/>
    <poly id="345950628" type="building.yes" color="255,230,230" fill="1" layer="-1.00" shape="363.368375,617.726186 371.005241,618.410599 371.065987,617.758103 377.813288,618.367296 378.775467,607.816576 364.380328,606.533932 363.368375,617.726186"/>
    <poly id="345950642" type="building.yes" color="255,230,230" fill="1" layer="-1.00" shape="337.969988,601.556947 344.874331,602.754365 345.150988,601.129896 352.358763,602.385666 354.233963,591.733290 340.132696,589.280209 337.969988,601.556947"/>
    <poly id="347043012" type="building.yes" color="255,230,230" fill="1" layer="-1.00" shape="894.207930,168.063408 905.627211,167.268927 905.092767,159.847079 893.684339,160.641668 894.207930,168.063408"/>
    <poly id="347043042" type="building.yes" color="255,230,230" fill="1" layer="-1.00" shape="939.651077,200.526915 952.385424,199.601593 951.822376,191.780956 939.088135,192.695211 939.651077,200.526915"/>
    <poly id="347043047" type="building.yes" color="255,230,230" fill="1" layer="-1.00" shape="895.282177,185.652386 906.418960,184.877245 906.076738,179.970074 894.939953,180.745215 895.282177,185.652386"/>
    <poly id="347043082" type="building.yes" color="255,230,230" fill="1" layer="-1.00" shape="958.360368,189.421575 968.961451,189.017509 968.623442,180.402100 958.022356,180.806167 958.360368,189.421575"/>
    <poly id="347043108" type="building.yes" color="255,230,230" fill="1" layer="-1.00" shape="937.877079,172.481403 949.937451,171.637950 949.356419,163.440773 937.296153,164.273158 937.877079,172.481403"/>
    <poly id="347043248" type="building.yes" color="255,230,230" fill="1" layer="-1.00" shape="896.237382,179.108726 904.549259,178.526966 904.120740,172.467714 895.808861,173.049475 896.237382,179.108726"/>
    <poly id="347043340" type="building.yes" color="255,230,230" fill="1" layer="-1.00" shape="957.837913,179.697390 967.906807,179.310184 967.605528,171.370378 957.536631,171.757584 957.837913,179.697390"/>
    <poly id="347043369" type="building.yes" color="255,230,230" fill="1" layer="-1.00" shape="938.224180,183.465768 950.002057,182.641654 949.315981,172.993333 937.538101,173.817448 938.224180,183.465768"/>
    <poly id="347043434" type="building.yes" color="255,230,230" fill="1" layer="-1.00" shape="894.014543,159.095215 905.238299,158.309865 904.667012,150.223483 893.443253,151.008834 894.014543,159.095215"/>
    <poly id="347043502" type="building.yes" color="255,230,230" fill="1" layer="-1.00" shape="906.328752,178.644235 915.770594,177.985126 915.341967,171.936942 905.900124,172.596051 906.328752,178.644235"/>
    <poly id="347043520" type="building.yes" color="255,230,230" fill="1" layer="-1.00" shape="924.562898,163.991928 935.949614,163.197136 935.253663,153.449094 923.866943,154.243887 924.562898,163.991928"/>
    <poly id="347043575" type="building.yes" color="255,230,230" fill="1" layer="-1.00" shape="939.384236,191.303393 951.252035,190.170226 950.601575,183.499949 938.744520,184.644292 939.384236,191.303393"/>
    <poly id="347043647" type="building.yes" color="255,230,230" fill="1" layer="-1.00" shape="906.172633,157.156833 918.254721,156.313581 917.683438,148.227198 905.601456,149.059383 906.172633,157.156833"/>
    <poly id="347043672" type="building.yes" color="255,230,230" fill="1" layer="-1.00" shape="925.826189,181.128937 937.235489,180.245815 936.637780,172.635156 925.228587,173.507210 925.826189,181.128937"/>
    <poly id="347043692" type="building.yes" color="255,230,230" fill="1" layer="-1.00" shape="908.367111,185.505382 918.797668,184.778591 918.465317,179.971142 908.023901,180.697826 908.367111,185.505382"/>
    <poly id="347043703" type="building.yes" color="255,230,230" fill="1" layer="-1.00" shape="925.389139,172.645383 936.678033,171.860692 936.173313,164.726943 924.884417,165.511635 925.389139,172.645383"/>
    <poly id="347043768" type="building.yes" color="255,230,230" fill="1" layer="-1.00" shape="907.284429,167.672790 919.833676,166.800962 919.243205,158.459791 906.693954,159.331619 907.284429,167.672790"/>
    <poly id="347043786" type="building.yes" color="255,230,230" fill="1" layer="-1.00" shape="926.640075,198.693200 936.894510,198.208199 936.479288,189.713791 926.224960,190.187724 926.640075,198.693200"/>
    <poly id="347043795" type="building.yes" color="255,230,230" fill="1" layer="-1.00" shape="937.361042,154.444105 947.574372,153.726238 947.012637,145.772781 936.799304,146.490649 937.361042,154.444105"/>
    <poly id="347043856" type="building.yes" color="255,230,230" fill="1" layer="-1.00" shape="926.080431,189.433566 936.217641,188.726013 935.721694,181.802670 925.595338,182.510333 926.080431,189.433566"/>
    <poly id="347043917" type="building.yes" color="255,230,230" fill="1" layer="-1.00" shape="938.196381,163.274762 948.713913,162.537774 948.180577,155.005239 937.663043,155.742228 938.196381,163.274762"/>
    <poly id="347043960" type="building.yes" color="255,230,230" fill="1" layer="-1.00" shape="969.678717,181.287054 980.138559,180.892661 979.835966,173.085675 969.376011,173.491137 969.678717,181.287054"/>
    <poly id="347044121" type="building.yes" color="255,230,230" fill="1" layer="-1.00" shape="956.564266,170.176076 966.003152,169.815830 965.690685,161.909121 956.251797,162.269368 956.564266,170.176076"/>
    <poly id="347044166" type="building.yes" color="255,230,230" fill="1" layer="-1.00" shape="969.733326,193.297984 981.344621,192.848594 980.946866,182.594308 969.335567,183.043699 969.733326,193.297984"/>
    <poly id="347044228" type="building.yes" color="255,230,230" fill="1" layer="-1.00" shape="987.336614,167.813502 997.785716,167.407938 997.577740,162.103593 987.128636,162.509158 987.336614,167.813502"/>
    <poly id="347044395" type="building.yes" color="255,230,230" fill="1" layer="-1.00" shape="967.965623,163.525687 979.511790,163.075648 979.206890,155.501098 967.671686,155.940177 967.965623,163.525687"/>
    <poly id="347044438" type="building.yes" color="255,230,230" fill="1" layer="-1.00" shape="966.505868,155.253378 978.747081,154.788091 978.434398,146.903519 966.193181,147.368806 966.505868,155.253378"/>
    <poly id="347044648" type="building.yes" color="255,230,230" fill="1" layer="-1.00" shape="968.905127,172.800160 980.472894,172.361406 980.151441,164.266426 968.583561,164.716249 968.905127,172.800160"/>
    <poly id="347077297" type="building.yes" color="255,230,230" fill="1" layer="-1.00" shape="645.581720,238.990068 659.842620,238.500379 659.473262,227.560096 645.201610,228.038610 645.581720,238.990068"/>
    <poly id="347077442" type="building.yes" color="255,230,230" fill="1" layer="-1.00" shape="612.267597,209.691323 626.110586,209.739878 626.153978,197.685672 612.310983,197.637118 612.267597,209.691323"/>
    <poly id="347078196" type="building.yes" color="255,230,230" fill="1" layer="-1.00" shape="627.165975,209.517873 638.826688,209.555888 638.872607,197.247108 627.211889,197.209094 627.165975,209.517873"/>
    <poly id="347078391" type="building.yes" color="255,230,230" fill="1" layer="-1.00" shape="585.914580,213.138590 593.460434,213.157975 593.500844,199.210865 585.965952,199.180521 585.914580,213.138590"/>
    <poly id="347107580" type="building.yes" color="255,230,230" fill="1" layer="-1.00" shape="688.023680,479.020073 715.819184,476.804885 713.195360,458.901699 694.746825,456.870283 688.023680,479.020073"/>
    <poly id="347107599" type="building.yes" color="255,230,230" fill="1" layer="-1.00" shape="834.286125,528.234564 840.415301,528.771321 841.258445,519.293141 835.118411,518.756277 834.286125,528.234564"/>
    <poly id="347107603" type="building.yes" color="255,230,230" fill="1" layer="-1.00" shape="959.545147,306.437743 967.552010,307.048488 968.809890,290.788824 960.792167,290.177972 959.545147,306.437743"/>
    <poly id="347107613" type="building.yes" color="255,230,230" fill="1" layer="-1.00" shape="1021.637548,301.197862 1035.036181,301.164735 1035.004491,292.319900 1021.616709,292.353136 1021.637548,301.197862"/>
    <poly id="347107616" type="building.yes" color="255,230,230" fill="1" layer="-1.00" shape="948.664920,457.605375 955.630612,458.095105 956.059564,452.066491 949.093980,451.565694 948.664920,457.605375"/>
    <poly id="347107631" type="building.yes" color="255,230,230" fill="1" layer="-1.00" shape="795.593840,510.316927 804.681674,511.403270 805.650797,503.453928 796.563070,502.356516 795.593840,510.316927"/>
    <poly id="347107657" type="building.yes" color="255,230,230" fill="1" layer="-1.00" shape="874.594247,478.456298 886.249489,479.036789 886.628104,471.513299 874.972859,470.932808 874.594247,478.456298"/>
    <poly id="347107659" type="building.yes" color="255,230,230" fill="1" layer="-1.00" shape="760.467683,468.901012 772.313397,471.077346 775.306454,455.012006 763.460734,452.835673 760.467683,468.901012"/>
    <poly id="347107663" type="building.yes" color="255,230,230" fill="1" layer="-1.00" shape="1045.650337,227.204086 1052.228261,224.103467 1047.569481,214.338240 1042.889644,204.506389 1036.311827,207.595942 1045.650337,227.204086"/>
    <poly id="347107733" type="building.yes" color="255,230,230" fill="1" layer="-1.00" shape="816.347677,524.038497 822.238231,524.550745 823.081149,515.094703 817.190703,514.571386 816.347677,524.038497"/>
    <poly id="347107739" type="building.yes" color="255,230,230" fill="1" layer="-1.00" shape="703.315841,522.364654 712.099139,523.503296 712.898146,517.378732 704.114845,516.240089 703.315841,522.364654"/>
    <poly id="347107754" type="building.yes" color="255,230,230" fill="1" layer="-1.00" shape="1059.192148,275.125412 1072.338182,279.761119 1075.241713,271.642781 1062.084819,267.006966 1059.192148,275.125412"/>
    <poly id="347107798" type="building.yes" color="255,230,230" fill="1" layer="-1.00" shape="948.385080,338.030058 953.594569,338.247765 954.120413,325.733396 948.910812,325.526758 948.385080,338.030058"/>
    <poly id="347107854" type="building.yes" color="255,230,230" fill="1" layer="-1.00" shape="1101.301629,250.692200 1111.015851,251.032118 1111.395776,240.099228 1101.681550,239.759311 1101.301629,250.692200"/>
    <poly id="347107902" type="building.yes" color="255,230,230" fill="1" layer="-1.00" shape="714.639187,534.520447 720.754979,535.311643 721.683171,528.203176 715.567378,527.411980 714.639187,534.520447"/>
    <poly id="347107908" type="building.yes" color="255,230,230" fill="1" layer="-1.00" shape="1061.470072,265.495416 1073.783339,269.801846 1076.051135,263.381902 1063.748722,259.075580 1061.470072,265.495416"/>
    <poly id="347107935" type="building.yes" color="255,230,230" fill="1" layer="-1.00" shape="1124.249883,173.488798 1130.740615,172.612296 1130.254643,169.065236 1138.430459,167.972997 1136.700943,155.159499 1122.023641,157.117065 1124.249883,173.488798"/>
    <poly id="347107944" type="building.yes" color="255,230,230" fill="1" layer="-1.00" shape="906.699131,491.681675 914.480037,492.079854 914.980189,482.155491 907.199170,481.768380 906.699131,491.681675"/>
    <poly id="347107946" type="building.yes" color="255,230,230" fill="1" layer="-1.00" shape="698.150876,584.490645 708.303712,584.380944 708.179716,573.885863 698.037734,573.995673 698.150876,584.490645"/>
    <poly id="347107974" type="building.yes" color="255,230,230" fill="1" layer="-1.00" shape="1042.162625,521.839286 1051.658630,522.276662 1052.099938,512.816626 1042.593073,512.379142 1042.162625,521.839286"/>
    <poly id="347108011" type="building.yes" color="255,230,230" fill="1" layer="-1.00" shape="948.156082,306.380140 958.283483,306.657689 958.560263,296.266191 948.432748,295.999711 948.156082,306.380140"/>
    <poly id="347108013" type="building.yes" color="255,230,230" fill="1" layer="-1.00" shape="823.472177,334.367308 826.503567,333.057952 823.700533,326.665220 820.680108,327.963615 823.472177,334.367308"/>
    <poly id="347108016" type="building.yes" color="255,230,230" fill="1" layer="-1.00" shape="873.203569,499.352749 889.883260,500.193387 890.342383,491.120968 884.916344,490.845771 884.714314,494.795572 873.460658,494.230131 873.203569,499.352749"/>
    <poly id="347108019" type="building.yes" color="255,230,230" fill="1" layer="-1.00" shape="696.937837,573.232049 708.486551,572.505221 707.980270,564.430564 696.431553,565.157393 696.937837,573.232049"/>
    <poly id="347108021" type="building.yes" color="255,230,230" fill="1" layer="-1.00" shape="887.309835,488.168553 891.466217,488.375812 892.720411,463.725452 888.542313,463.517979 887.309835,488.168553"/>
    <poly id="347108052" type="building.yes" color="255,230,230" fill="1" layer="-1.00" shape="1066.150214,251.217928 1076.072969,254.615082 1078.845016,246.617204 1068.922257,243.220050 1066.150214,251.217928"/>
    <poly id="347108081" type="building.yes" color="255,230,230" fill="1" layer="-1.00" shape="1022.957218,274.334239 1050.078988,275.488851 1050.403357,267.964816 1023.281579,266.810206 1022.957218,274.334239"/>
    <poly id="347108092" type="building.yes" color="255,230,230" fill="1" layer="-1.00" shape="715.117402,500.508723 724.750472,501.356914 725.508366,492.807728 715.875292,491.959538 715.117402,500.508723"/>
    <poly id="347108096" type="building.yes" color="255,230,230" fill="1" layer="-1.00" shape="917.474541,448.506870 928.576447,449.048681 928.955841,441.447711 918.917648,440.938588 917.843295,440.883656 917.474541,448.506870"/>
    <poly id="347108103" type="building.yes" color="255,230,230" fill="1" layer="-1.00" shape="971.860739,253.581343 989.790822,246.597217 987.079273,239.740452 969.160044,246.724688 971.860739,253.581343"/>
    <poly id="347108126" type="building.yes" color="255,230,230" fill="1" layer="-1.00" shape="842.943207,528.962427 850.254748,529.610535 851.036590,520.840193 843.714080,520.203047 842.943207,528.962427"/>
    <poly id="347108146" type="building.yes" color="255,230,230" fill="1" layer="-1.00" shape="721.105702,526.216019 725.833517,526.827417 726.938050,518.359154 722.221090,517.747863 721.105702,526.216019"/>
    <poly id="347108166" type="building.yes" color="255,230,230" fill="1" layer="-1.00" shape="851.109335,529.928954 857.835067,530.526977 858.654199,521.281018 851.928465,520.682994 851.109335,529.928954"/>
    <poly id="347108189" type="building.yes" color="255,230,230" fill="1" layer="-1.00" shape="873.372552,486.690944 885.917582,487.324537 886.255507,480.619784 873.710473,479.986192 873.372552,486.690944"/>
    <poly id="347108215" type="building.yes" color="255,230,230" fill="1" layer="-1.00" shape="816.691862,513.415216 821.931470,513.876732 822.688296,505.438228 817.448687,504.976712 816.691862,513.415216"/>
    <poly id="347108222" type="building.yes" color="255,230,230" fill="1" layer="-1.00" shape="931.226604,441.293119 941.080347,441.789347 941.524675,433.115281 931.670929,432.619053 931.226604,441.293119"/>
    <poly id="347108238" type="building.yes" color="255,230,230" fill="1" layer="-1.00" shape="946.983408,323.902568 952.366495,324.133066 952.892556,311.596561 947.509357,311.377132 946.983408,323.902568"/>
    <poly id="347108245" type="building.yes" color="255,230,230" fill="1" layer="-1.00" shape="852.595766,519.084537 858.952710,519.645695 859.808582,509.979460 853.451526,509.429370 852.595766,519.084537"/>
    <poly id="347108256" type="building.yes" color="255,230,230" fill="1" layer="-1.00" shape="839.289468,317.067550 843.368684,315.204040 841.710616,311.601093 837.620542,313.464496 839.289468,317.067550"/>
    <poly id="347108259" type="building.yes" color="255,230,230" fill="1" layer="-1.00" shape="947.417984,485.897674 960.513845,486.824571 961.183435,477.333596 948.098426,476.406807 947.417984,485.897674"/>
    <poly id="347108305" type="building.yes" color="255,230,230" fill="1" layer="-1.00" shape="1007.391580,527.837121 1018.269617,530.147871 1020.375138,520.383333 1009.497097,518.072582 1007.391580,527.837121"/>
    <poly id="347108348" type="building.yes" color="255,230,230" fill="1" layer="-1.00" shape="839.031326,593.890387 850.178012,595.384597 851.255605,587.447399 840.108915,585.953189 839.031326,593.890387"/>
    <poly id="347108422" type="building.yes" color="255,230,230" fill="1" layer="-1.00" shape="865.425387,305.947237 886.638151,296.394276 884.310829,291.301381 863.087316,300.843169 865.425387,305.947237"/>
    <poly id="347108449" type="building.yes" color="255,230,230" fill="1" layer="-1.00" shape="843.829357,318.020253 848.182827,318.063411 848.257552,310.525841 843.904081,310.482682 843.829357,318.020253"/>
    <poly id="347108497" type="building.yes" color="255,230,230" fill="1" layer="-1.00" shape="1017.499616,519.115022 1024.862797,521.125235 1027.937526,509.975557 1020.574233,507.976412 1017.499616,519.115022"/>
    <poly id="347108542" type="building.yes" color="255,230,230" fill="1" layer="-1.00" shape="1057.549074,291.901526 1063.455702,291.893710 1063.443726,285.440079 1057.526131,285.458856 1057.549074,291.901526"/>
    <poly id="347108556" type="building.yes" color="255,230,230" fill="1" layer="-1.00" shape="750.075800,538.037530 757.742308,539.021216 758.788400,530.973012 751.122000,529.978258 750.075800,538.037530"/>
    <poly id="347108560" type="building.yes" color="255,230,230" fill="1" layer="-1.00" shape="702.336648,534.619916 711.185081,535.759204 712.536572,525.378371 703.698992,524.239190 702.336648,534.619916"/>
    <poly id="347108573" type="building.yes" color="255,230,230" fill="1" layer="-1.00" shape="926.204114,462.729170 942.113351,463.528985 942.709047,451.635201 926.810660,450.835494 926.204114,462.729170"/>
    <poly id="347108590" type="building.yes" color="255,230,230" fill="1" layer="-1.00" shape="836.834036,334.754364 844.100673,334.461110 843.918113,329.876538 836.640619,330.169685 836.834036,334.754364"/>
    <poly id="347108615" type="building.yes" color="255,230,230" fill="1" layer="-1.00" shape="827.574084,333.500274 830.321669,332.343077 825.673378,321.515333 822.936649,322.672638 827.574084,333.500274"/>
    <poly id="347108623" type="building.yes" color="255,230,230" fill="1" layer="-1.00" shape="876.120919,469.029172 886.701814,469.554732 887.067377,462.252502 876.486590,461.715874 876.120919,469.029172"/>
    <poly id="347108804" type="building.yes" color="255,230,230" fill="1" layer="-1.00" shape="833.799780,318.828523 838.258975,316.968779 836.826699,313.589460 832.367504,315.449205 833.799780,318.828523"/>
    <poly id="347108822" type="building.yes" color="255,230,230" fill="1" layer="-1.00" shape="1080.292169,194.870624 1092.013214,188.832275 1086.770708,178.806651 1075.060517,184.845109 1080.292169,194.870624"/>
    <poly id="347108931" type="building.yes" color="255,230,230" fill="1" layer="-1.00" shape="915.401969,491.081675 923.577880,491.063134 923.547176,479.926932 915.371262,479.945473 915.401969,491.081675"/>