<?xml version="1.0" encoding="UTF-8"?>

<!-- generated on Thu Apr 29 21:02:32 2021 by Eclipse SUMO polyconvert Version 1.8.0
<configuration xmlns:xsi="http://www.w3.org/2001/XMLSchema-instance" xsi:noNamespaceSchemaLocation="http://sumo.dlr.de/xsd/polyconvertConfiguration.xsd">

    <input>
        <net-file value="osm.net.xml"/>
        <osm-files value="osm_bbox.osm.xml"/>
        <osm.keep-full-type value="true"/>
        <type-file value="/usr/local/opt/sumo/share/sumo/data/typemap/osmPolyconvert.typ.xml"/>
    </input>

    <output>
        <output-file value="osm.poly.xml"/>
    </output>

    <processing>
        <poi-layer-offset value="5"/>
    </processing>

    <report>
        <verbose value="true"/>
    </report>

</configuration>
-->

<additional xmlns:xsi="http://www.w3.org/2001/XMLSchema-instance" xsi:noNamespaceSchemaLocation="http://sumo.dlr.de/xsd/additional_file.xsd">
    <location netOffset="-775991.45,-1429870.83" convBoundary="-0.00,-0.00,1173.42,939.41" origBoundary="77.543610,12.921837,77.554351,12.930354" projParameter="+proj=utm +zone=43 +ellps=WGS84 +datum=WGS84 +units=m +no_defs"/>

    <poly id="350026660" type="building.yes" color="255,230,230" fill="1" layer="-1.00" shape="682.897657,452.917286 695.351306,446.443874 682.904203,422.830213 670.450548,429.303632 682.897657,452.917286"/>
    <poly id="350026936" type="building.yes" color="255,230,230" fill="1" layer="-1.00" shape="696.576121,445.570508 708.786460,438.452641 694.937142,414.991048 682.715832,422.119883 696.576121,445.570508"/>
    <poly id="350078099" type="building.yes" color="255,230,230" fill="1" layer="-1.00" shape="874.284952,362.382244 883.718849,358.214485 878.216770,345.927729 868.782870,350.095490 874.284952,362.382244"/>
    <poly id="350078144" type="building.yes" color="255,230,230" fill="1" layer="-1.00" shape="834.736980,364.799738 846.060689,358.403674 834.459538,338.163518 823.135825,344.559588 834.736980,364.799738"/>
    <poly id="350078201" type="building.yes" color="255,230,230" fill="1" layer="-1.00" shape="840.662968,380.311961 850.092881,376.542659 844.529245,362.805180 835.099329,366.574485 840.662968,380.311961"/>
    <poly id="350078261" type="building.yes" color="255,230,230" fill="1" layer="-1.00" shape="853.180671,375.045831 873.927132,365.599931 866.572097,349.663879 845.825629,359.109785 853.180671,375.045831"/>
    <poly id="350078695" type="building.yes" color="255,230,230" fill="1" layer="-1.00" shape="727.261783,359.422719 745.464928,349.132242 736.916137,334.213819 718.713098,344.493233 727.261783,359.422719"/>
    <poly id="350078845" type="building.yes" color="255,230,230" fill="1" layer="-1.00" shape="706.169270,373.093854 715.612830,367.952016 706.589797,351.589832 697.146233,356.731674 706.169270,373.093854"/>
    <poly id="350078854" type="building.yes" color="255,230,230" fill="1" layer="-1.00" shape="779.179473,390.558503 789.177911,386.396342 784.224000,374.668554 774.225560,378.830717 779.179473,390.558503"/>
    <poly id="350078883" type="building.yes" color="255,230,230" fill="1" layer="-1.00" shape="789.359136,408.526270 797.421034,404.743320 789.805844,388.760424 781.754911,392.532415 789.359136,408.526270"/>
    <poly id="350078886" type="building.yes" color="255,230,230" fill="1" layer="-1.00" shape="717.233247,366.606600 726.100282,361.569717 716.195347,344.357455 707.328309,349.394341 717.233247,366.606600"/>
    <poly id="350078891" type="building.yes" color="255,230,230" fill="1" layer="-1.00" shape="793.568550,384.912492 816.187648,373.869055 808.130292,357.582867 785.511187,368.626312 793.568550,384.912492"/>
    <poly id="350078931" type="building.yes" color="255,230,230" fill="1" layer="-1.00" shape="797.836314,403.385899 807.271065,399.129571 801.065302,385.540679 791.630549,389.797010 797.836314,403.385899"/>
    <poly id="350078950" type="building.yes" color="255,230,230" fill="1" layer="-1.00" shape="819.704774,370.693923 829.051910,366.514214 822.932673,352.959388 813.574787,357.127924 819.704774,370.693923"/>
    <poly id="350078992" type="building.yes" color="255,230,230" fill="1" layer="-1.00" shape="809.386941,398.187602 831.354216,388.266781 824.149292,372.520423 802.182009,382.441251 809.386941,398.187602"/>
    <poly id="350509410" type="building.yes" color="255,230,230" fill="1" layer="-1.00" shape="697.021001,379.113133 703.931042,375.418309 683.545893,337.700412 676.635847,341.395242 697.021001,379.113133"/>
    <poly id="350509420" type="building.yes" color="255,230,230" fill="1" layer="-1.00" shape="762.649044,429.126294 780.159628,418.596484 766.121809,395.531473 748.611329,406.050224 762.649044,429.126294"/>
    <poly id="350509537" type="building.yes" color="255,230,230" fill="1" layer="-1.00" shape="905.854927,401.075269 915.460878,397.075282 908.194677,379.856023 898.588722,383.856014 905.854927,401.075269"/>
    <poly id="350509554" type="building.yes" color="255,230,230" fill="1" layer="-1.00" shape="834.061888,452.143216 849.613189,443.187941 837.250832,421.977133 821.699526,430.932416 834.061888,452.143216"/>
    <poly id="350509593" type="building.yes" color="255,230,230" fill="1" layer="-1.00" shape="798.785988,429.032548 813.873344,420.869640 807.730732,409.661338 792.643484,417.813181 798.785988,429.032548"/>
    <poly id="350509660" type="building.yes" color="255,230,230" fill="1" layer="-1.00" shape="819.618052,430.601723 836.883566,421.785289 826.187998,401.111374 808.922477,409.927816 819.618052,430.601723"/>
    <poly id="350509744" type="building.yes" color="255,230,230" fill="1" layer="-1.00" shape="656.708164,379.840675 666.607709,374.703365 657.965313,358.278576 648.065765,363.415890 656.708164,379.840675"/>
    <poly id="350509790" type="building.yes" color="255,230,230" fill="1" layer="-1.00" shape="889.204592,446.206099 897.016786,442.420688 886.012879,420.005738 878.200681,423.791152 889.204592,446.206099"/>
    <poly id="350509822" type="building.yes" color="255,230,230" fill="1" layer="-1.00" shape="666.957840,373.345294 677.330971,367.537459 668.794115,352.508485 658.420871,358.327392 666.957840,373.345294"/>
    <poly id="350509872" type="building.yes" color="255,230,230" fill="1" layer="-1.00" shape="667.306594,396.107835 687.120347,384.361118 678.351314,369.750470 658.537446,381.508264 667.306594,396.107835"/>
    <poly id="350509895" type="building.yes" color="255,230,230" fill="1" layer="-1.00" shape="862.615647,448.110686 877.843830,439.982424 871.393563,428.051511 856.165266,436.190845 862.615647,448.110686"/>
    <poly id="350510049" type="building.yes" color="255,230,230" fill="1" layer="-1.00" shape="849.740234,423.905963 859.342590,419.175331 847.227707,394.922846 837.625346,399.653484 849.740234,423.905963"/>
    <poly id="350510059" type="building.yes" color="255,230,230" fill="1" layer="-1.00" shape="898.103379,442.342964 905.913479,438.767858 894.507666,414.190323 886.697562,417.765434 898.103379,442.342964"/>
    <poly id="350510086" type="building.yes" color="255,230,230" fill="1" layer="-1.00" shape="647.374053,362.003164 656.124564,357.762111 645.386461,335.892359 636.646804,340.133525 647.374053,362.003164"/>
    <poly id="350510135" type="building.yes" color="255,230,230" fill="1" layer="-1.00" shape="907.571746,439.072200 914.345679,435.962758 903.705142,413.042219 896.931317,416.140596 907.571746,439.072200"/>
    <poly id="350510148" type="building.yes" color="255,230,230" fill="1" layer="-1.00" shape="864.965833,398.608715 873.260491,394.352112 866.836225,381.989748 858.541454,386.257421 864.965833,398.608715"/>
    <poly id="350510220" type="building.yes" color="255,230,230" fill="1" layer="-1.00" shape="883.392500,410.559384 892.827156,406.314151 886.398510,392.213808 876.952994,396.458936 883.392500,410.559384"/>
    <poly id="350510239" type="building.yes" color="255,230,230" fill="1" layer="-1.00" shape="748.637507,455.730816 767.292084,445.898716 751.900200,417.064030 733.256471,426.896251 748.637507,455.730816"/>
    <poly id="350510321" type="building.yes" color="255,230,230" fill="1" layer="-1.00" shape="732.344265,424.728592 740.752974,419.919612 736.397716,412.404245 727.989006,417.213226 732.344265,424.728592"/>
    <poly id="350510330" type="building.yes" color="255,230,230" fill="1" layer="-1.00" shape="858.898924,414.665581 866.875632,410.715757 856.005657,389.021685 848.028946,392.971513 858.898924,414.665581"/>
    <poly id="350510406" type="building.yes" color="255,230,230" fill="1" layer="-1.00" shape="872.389678,415.264980 881.188616,410.526345 872.657833,394.899585 863.858893,399.638224 872.389678,415.264980"/>
    <poly id="350510457" type="building.yes" color="255,230,230" fill="1" layer="-1.00" shape="883.220110,383.193607 893.631100,377.950771 889.605336,370.062291 879.194344,375.305128 883.220110,383.193607"/>
    <poly id="350510523" type="building.yes" color="255,230,230" fill="1" layer="-1.00" shape="877.393633,394.736470 885.205838,390.951054 877.394598,375.032587 869.582391,378.818006 877.393633,394.736470"/>
    <poly id="350510558" type="building.yes" color="255,230,230" fill="1" layer="-1.00" shape="898.501865,383.855148 908.563665,378.785950 901.385544,364.711341 891.312774,369.791502 898.501865,383.855148"/>
    <poly id="350510576" type="building.yes" color="255,230,230" fill="1" layer="-1.00" shape="776.953796,453.732641 795.604259,443.225271 782.179208,419.690360 763.517881,430.197632 776.953796,453.732641"/>
    <poly id="350510598" type="building.yes" color="255,230,230" fill="1" layer="-1.00" shape="893.382173,402.921316 901.905167,398.633789 892.287773,379.819213 883.775522,384.117921 893.382173,402.921316"/>
    <poly id="350510617" type="building.yes" color="255,230,230" fill="1" layer="-1.00" shape="725.557959,416.004559 767.593598,392.756600 761.203233,381.346592 719.167475,404.605632 725.557959,416.004559"/>
    <poly id="350510625" type="building.yes" color="255,230,230" fill="1" layer="-1.00" shape="803.498171,438.865032 815.707887,431.813617 811.298806,424.253418 799.089088,431.304836 803.498171,438.865032"/>
    <poly id="350550598" type="building.yes" color="255,230,230" fill="1" layer="-1.00" shape="646.040547,405.404790 658.733611,398.878396 651.989170,385.948362 639.295993,392.485829 646.040547,405.404790"/>
    <poly id="350550628" type="building.yes" color="255,230,230" fill="1" layer="-1.00" shape="637.588508,391.671813 650.177687,385.764276 639.627363,363.575377 627.049035,369.483028 637.588508,391.671813"/>
    <poly id="350550645" type="building.yes" color="255,230,230" fill="1" layer="-1.00" shape="633.363526,413.591786 644.313163,407.678989 633.851629,388.568320 622.901989,394.481122 633.363526,413.591786"/>
    <poi id="1462194226" type="amenity.restaurant" color="237,199,199" layer="4.00" x="723.32" y="417.90"/>
    <poi id="1462237219" type="amenity.restaurant" color="237,199,199" layer="4.00" x="684.88" y="418.62"/>
    <poi id="1465031677" type="amenity.atm" color="237,199,199" layer="4.00" x="689.27" y="421.22"/>
    <poi id="1471945408" type="amenity.restaurant" color="237,199,199" layer="4.00" x="657.25" y="387.86"/>
    <poi id="1471945412" type="amenity.restaurant" color="237,199,199" layer="4.00" x="777.88" y="364.23"/>
    <poi id="1471945416" type="shop.hairdresser" color="237,199,255" layer="4.00" x="781.98" y="361.96"/>
    <poi id="1473950469" type="amenity.restaurant" color="237,199,199" layer="4.00" x="779.61" y="365.99"/>
    <poi id="2012855686" type="amenity.atm" color="237,199,199" layer="4.00" x="694.02" y="404.24"/>
    <poi id="2012858067" type="amenity.bank" color="237,199,199" layer="4.00" x="696.11" y="399.93"/>
    <poi id="4490018874" type="leisure.sports_centre" color="207,245,201" layer="3.00" x="747.61" y="392.93"/>
    <poi id="953663303" type="shop.supermarket" color="237,199,255" layer="4.00" x="717.33" y="405.57"/>
</additional>
