<?xml version="1.0" encoding="UTF-8"?>

<!-- generated on Thu Apr 29 21:02:32 2021 by Eclipse SUMO duarouter Version 1.8.0
<configuration xmlns:xsi="http://www.w3.org/2001/XMLSchema-instance" xsi:noNamespaceSchemaLocation="http://sumo.dlr.de/xsd/duarouterConfiguration.xsd">

    <input>
        <net-file value="/usr/local/Cellar/sumo/1.8.0/share/sumo/tools/2021-04-29-21-02-30/osm.net.xml"/>
        <route-files value="/usr/local/Cellar/sumo/1.8.0/share/sumo/tools/2021-04-29-21-02-30/osm.passenger.trips.xml"/>
    </input>

    <output>
        <output-file value="/usr/local/Cellar/sumo/1.8.0/share/sumo/tools/2021-04-29-21-02-30/osm.passenger.trips.xml.tmp"/>
        <write-trips value="true"/>
    </output>

    <time>
        <begin value="0"/>
        <end value="3600"/>
    </time>

    <report>
        <no-warnings value="true"/>
        <ignore-errors value="true"/>
        <no-step-log value="true"/>
    </report>

</configuration>
-->

<routes xmlns:xsi="http://www.w3.org/2001/XMLSchema-instance" xsi:noNamespaceSchemaLocation="http://sumo.dlr.de/xsd/routes_file.xsd">
    <vType id="veh_passenger" vClass="passenger"/>
    <trip id="veh0" type="veh_passenger" depart="0.00" departLane="best" departSpeed="max" from="133626287#0" to="133626287#2"/>
    <trip id="veh1" type="veh_passenger" depart="30.47" departLane="best" departSpeed="max" from="690136360#0" to="690136360#3"/>
    <trip id="veh2" type="veh_passenger" depart="60.94" departLane="best" departSpeed="max" from="133626287#0" to="-169802060#1"/>
    <trip id="veh3" type="veh_passenger" depart="91.40" departLane="best" departSpeed="max" from="133626287#0" to="169802060#1"/>
    <trip id="veh4" type="veh_passenger" depart="121.87" departLane="best" from="-169802060#1" to="-778011203"/>
    <trip id="veh5" type="veh_passenger" depart="152.34" departLane="best" departSpeed="max" from="133626287#0" to="41196347#1"/>
    <trip id="veh6" type="veh_passenger" depart="182.81" departLane="best" departSpeed="max" from="690136360#0" to="-169802060#0"/>
    <trip id="veh7" type="veh_passenger" depart="213.28" departLane="best" departSpeed="max" from="690136360#0" to="690136360#3"/>
    <trip id="veh8" type="veh_passenger" depart="243.75" departLane="best" departSpeed="max" from="133626287#0" to="-41196358#1"/>
    <trip id="veh9" type="veh_passenger" depart="274.21" departLane="best" from="793731184#1" to="133626287#3"/>
    <trip id="veh10" type="veh_passenger" depart="304.68" departLane="best" departSpeed="max" from="690136360#0" to="41196358#0"/>
    <trip id="veh11" type="veh_passenger" depart="335.15" departLane="best" departSpeed="max" from="690136360#0" to="690136360#4"/>
    <trip id="veh12" type="veh_passenger" depart="365.62" departLane="best" from="41196346#1" to="793731188#0"/>
    <trip id="veh13" type="veh_passenger" depart="396.09" departLane="best" departSpeed="max" from="133626287#0" to="41196346#1"/>
    <trip id="veh14" type="veh_passenger" depart="426.56" departLane="best" departSpeed="max" from="690136360#0" to="41196358#1"/>
    <trip id="veh15" type="veh_passenger" depart="457.02" departLane="best" departSpeed="max" from="690136360#0" to="-41196346#0"/>
    <trip id="veh16" type="veh_passenger" depart="487.49" departLane="best" departSpeed="max" from="133626287#0" to="133626287#3"/>
    <trip id="veh17" type="veh_passenger" depart="517.96" departLane="best" from="-41196347#0" to="133626287#3"/>
    <trip id="veh18" type="veh_passenger" depart="548.43" departLane="best" from="41196358#1" to="133626287#3"/>
    <trip id="veh19" type="veh_passenger" depart="578.90" departLane="best" departSpeed="max" from="133626287#0" to="-778011203"/>
    <trip id="veh20" type="veh_passenger" depart="609.36" departLane="best" departSpeed="max" from="133626287#0" to="793731184#1"/>
    <trip id="veh21" type="veh_passenger" depart="639.83" departLane="best" from="-41196361" to="690136360#4"/>
    <trip id="veh22" type="veh_passenger" depart="670.30" departLane="best" from="-41196358#1" to="133626287#3"/>
    <trip id="veh23" type="veh_passenger" depart="700.77" departLane="best" from="793731188#1" to="41196361"/>
    <trip id="veh24" type="veh_passenger" depart="731.24" departLane="best" departSpeed="max" from="690136360#0" to="690136360#4"/>
    <trip id="veh25" type="veh_passenger" depart="761.71" departLane="best" departSpeed="max" from="133626287#0" to="-169802060#1"/>
    <trip id="veh26" type="veh_passenger" depart="792.17" departLane="best" departSpeed="max" from="133626287#0" to="133626287#3"/>
    <trip id="veh27" type="veh_passenger" depart="822.64" departLane="best" from="-778011203" to="793731184#1"/>
    <trip id="veh28" type="veh_passenger" depart="853.11" departLane="best" from="690136360#3" to="133626287#3"/>
    <trip id="veh29" type="veh_passenger" depart="883.58" departLane="best" from="41196361" to="133626287#3"/>
    <trip id="veh30" type="veh_passenger" depart="914.05" departLane="best" from="690136360#3" to="133626287#3"/>
    <trip id="veh31" type="veh_passenger" depart="944.52" departLane="best" departSpeed="max" from="133626287#0" to="133626287#2"/>
    <trip id="veh32" type="veh_passenger" depart="974.98" departLane="best" from="41196347#0" to="133626287#3"/>
    <trip id="veh33" type="veh_passenger" depart="1005.45" departLane="best" from="41196347#1" to="690136360#4"/>
    <trip id="veh34" type="veh_passenger" depart="1035.92" departLane="best" departSpeed="max" from="133626287#0" to="133626287#2"/>
    <trip id="veh35" type="veh_passenger" depart="1066.39" departLane="best" from="793731188#1" to="169802060#1"/>
    <trip id="veh36" type="veh_passenger" depart="1096.86" departLane="best" from="-41196347#0" to="-41196346#0"/>
    <trip id="veh37" type="veh_passenger" depart="1127.32" departLane="best" from="-41196346#0" to="133626287#3"/>
    <trip id="veh38" type="veh_passenger" depart="1157.79" departLane="best" from="793731188#1" to="41196346#0"/>
    <trip id="veh39" type="veh_passenger" depart="1188.26" departLane="best" from="793731188#0" to="690136360#4"/>
    <trip id="veh40" type="veh_passenger" depart="1218.73" departLane="best" from="-169802060#0" to="690136360#4"/>
    <trip id="veh41" type="veh_passenger" depart="1249.20" departLane="best" departSpeed="max" from="690136360#0" to="41196346#1"/>
    <trip id="veh42" type="veh_passenger" depart="1279.67" departLane="best" departSpeed="max" from="133626287#0" to="41196361"/>
    <trip id="veh43" type="veh_passenger" depart="1310.13" departLane="best" from="133626287#2" to="793731184#1"/>
    <trip id="veh44" type="veh_passenger" depart="1340.60" departLane="best" from="690136360#3" to="133626287#3"/>
    <trip id="veh45" type="veh_passenger" depart="1371.07" departLane="best" from="690136360#3" to="690136360#4"/>
    <trip id="veh46" type="veh_passenger" depart="1401.54" departLane="best" departSpeed="max" from="133626287#0" to="41196361"/>
    <trip id="veh47" type="veh_passenger" depart="1432.01" departLane="best" departSpeed="max" from="690136360#0" to="41196346#1"/>
    <trip id="veh48" type="veh_passenger" depart="1462.48" departLane="best" departSpeed="max" from="690136360#0" to="41196346#0"/>
    <trip id="veh49" type="veh_passenger" depart="1492.94" departLane="best" from="-169802060#0" to="133626287#3"/>
    <trip id="veh50" type="veh_passenger" depart="1523.41" departLane="best" from="690136360#3" to="690136360#4"/>
    <trip id="veh51" type="veh_passenger" depart="1553.88" departLane="best" departSpeed="max" from="133626287#0" to="-41196346#0"/>
    <trip id="veh52" type="veh_passenger" depart="1584.35" departLane="best" from="690136360#3" to="793731184#1"/>
    <trip id="veh53" type="veh_passenger" depart="1614.82" departLane="best" from="-41196346#1" to="690136360#4"/>
    <trip id="veh54" type="veh_passenger" depart="1645.28" departLane="best" departSpeed="max" from="690136360#0" to="-41196358#0"/>
    <trip id="veh55" type="veh_passenger" depart="1675.75" departLane="best" departSpeed="max" from="133626287#0" to="-778011203"/>
    <trip id="veh56" type="veh_passenger" depart="1706.22" departLane="best" from="41196346#1" to="690136360#4"/>
    <trip id="veh57" type="veh_passenger" depart="1736.69" departLane="best" from="-778011203" to="133626287#3"/>
    <trip id="veh58" type="veh_passenger" depart="1767.16" departLane="best" from="793731188#1" to="41196361"/>
    <trip id="veh59" type="veh_passenger" depart="1797.63" departLane="best" from="-41196347#1" to="133626287#2"/>
    <trip id="veh60" type="veh_passenger" depart="1828.09" departLane="best" departSpeed="max" from="133626287#0" to="41196347#1"/>
    <trip id="veh61" type="veh_passenger" depart="1858.56" departLane="best" departSpeed="max" from="133626287#0" to="133626287#2"/>
    <trip id="veh62" type="veh_passenger" depart="1889.03" departLane="best" departSpeed="max" from="690136360#0" to="-41196346#1"/>
    <trip id="veh63" type="veh_passenger" depart="1919.50" departLane="best" departSpeed="max" from="133626287#0" to="690136360#3"/>
    <trip id="veh64" type="veh_passenger" depart="1949.97" departLane="best" departSpeed="max" from="133626287#0" to="-41196358#0"/>
    <trip id="veh65" type="veh_passenger" depart="1980.44" departLane="best" from="169802060#0" to="690136360#4"/>
    <trip id="veh66" type="veh_passenger" depart="2010.90" departLane="best" departSpeed="max" from="690136360#0" to="-41196361"/>
    <trip id="veh67" type="veh_passenger" depart="2041.37" departLane="best" from="-41196347#0" to="133626287#3"/>
    <trip id="veh68" type="veh_passenger" depart="2071.84" departLane="best" departSpeed="max" from="133626287#0" to="133626287#3"/>
    <trip id="veh69" type="veh_passenger" depart="2102.31" departLane="best" departSpeed="max" from="690136360#0" to="690136360#3"/>
    <trip id="veh70" type="veh_passenger" depart="2132.78" departLane="best" from="793731188#1" to="-41196347#0"/>
    <trip id="veh71" type="veh_passenger" depart="2163.24" departLane="best" departSpeed="max" from="133626287#0" to="133626287#3"/>
    <trip id="veh72" type="veh_passenger" depart="2193.71" departLane="best" departSpeed="max" from="690136360#0" to="133626287#2"/>
    <trip id="veh73" type="veh_passenger" depart="2224.18" departLane="best" departSpeed="max" from="133626287#0" to="133626287#3"/>
    <trip id="veh74" type="veh_passenger" depart="2254.65" departLane="best" departSpeed="max" from="133626287#0" to="778011203"/>
    <trip id="veh75" type="veh_passenger" depart="2285.12" departLane="best" from="133626287#2" to="690136360#4"/>
    <trip id="veh76" type="veh_passenger" depart="2315.59" departLane="best" from="41196346#1" to="-41196346#0"/>
    <trip id="veh77" type="veh_passenger" depart="2346.05" departLane="best" from="793731188#1" to="690136360#4"/>
    <trip id="veh78" type="veh_passenger" depart="2376.52" departLane="best" from="793731188#0" to="778011203"/>
    <trip id="veh79" type="veh_passenger" depart="2406.99" departLane="best" departSpeed="max" from="690136360#0" to="-41196358#1"/>
    <trip id="veh80" type="veh_passenger" depart="2437.46" departLane="best" departSpeed="max" from="133626287#0" to="-41196346#0"/>
    <trip id="veh81" type="veh_passenger" depart="2467.93" departLane="best" departSpeed="max" from="133626287#0" to="793731188#1"/>
    <trip id="veh82" type="veh_passenger" depart="2498.40" departLane="best" from="133626287#2" to="133626287#3"/>
    <trip id="veh83" type="veh_passenger" depart="2528.86" departLane="best" from="41196347#0" to="690136360#4"/>
    <trip id="veh84" type="veh_passenger" depart="2559.33" departLane="best" from="-41196358#1" to="133626287#3"/>
    <trip id="veh85" type="veh_passenger" depart="2589.80" departLane="best" from="793731188#0" to="41196347#1"/>
    <trip id="veh86" type="veh_passenger" depart="2620.27" departLane="best" from="41196346#1" to="690136360#4"/>
    <trip id="veh87" type="veh_passenger" depart="2650.74" departLane="best" from="-41196346#0" to="41196347#1"/>
    <trip id="veh88" type="veh_passenger" depart="2681.20" departLane="best" from="169802060#1" to="690136360#4"/>
    <trip id="veh89" type="veh_passenger" depart="2711.67" departLane="best" from="-41196358#1" to="793731188#0"/>
    <trip id="veh90" type="veh_passenger" depart="2742.14" departLane="best" departSpeed="max" from="133626287#0" to="-41196347#1"/>
    <trip id="veh91" type="veh_passenger" depart="2772.61" departLane="best" departSpeed="max" from="133626287#0" to="41196347#1"/>
    <trip id="veh92" type="veh_passenger" depart="2803.08" departLane="best" from="41196346#0" to="778011203"/>
    <trip id="veh93" type="veh_passenger" depart="2833.55" departLane="best" from="-778011203" to="690136360#4"/>
    <trip id="veh94" type="veh_passenger" depart="2864.01" departLane="best" departSpeed="max" from="133626287#0" to="133626287#3"/>
    <trip id="veh95" type="veh_passenger" depart="2894.48" departLane="best" from="-41196346#1" to="133626287#3"/>
    <trip id="veh96" type="veh_passenger" depart="2924.95" departLane="best" from="793731188#1" to="793731188#1"/>
    <trip id="veh97" type="veh_passenger" depart="2955.42" departLane="best" departSpeed="max" from="133626287#0" to="778011203"/>
    <trip id="veh98" type="veh_passenger" depart="2985.89" departLane="best" from="690136360#3" to="690136360#4"/>
    <trip id="veh99" type="veh_passenger" depart="3016.36" departLane="best" departSpeed="max" from="133626287#0" to="-41196358#1"/>
    <trip id="veh100" type="veh_passenger" depart="3046.82" departLane="best" departSpeed="max" from="690136360#0" to="690136360#4"/>
    <trip id="veh101" type="veh_passenger" depart="3077.29" departLane="best" departSpeed="max" from="690136360#0" to="793731184#1"/>
    <trip id="veh102" type="veh_passenger" depart="3107.76" departLane="best" departSpeed="max" from="133626287#0" to="41196358#0"/>
    <trip id="veh103" type="veh_passenger" depart="3138.23" departLane="best" departSpeed="max" from="690136360#0" to="-778011203"/>
    <trip id="veh104" type="veh_passenger" depart="3168.70" departLane="best" from="41196358#1" to="133626287#3"/>
    <trip id="veh105" type="veh_passenger" depart="3199.16" departLane="best" from="169802060#0" to="690136360#4"/>
    <trip id="veh106" type="veh_passenger" depart="3229.63" departLane="best" departSpeed="max" from="690136360#0" to="-41196347#0"/>
    <trip id="veh107" type="veh_passenger" depart="3260.10" departLane="best" departSpeed="max" from="133626287#0" to="133626287#3"/>
    <trip id="veh108" type="veh_passenger" depart="3290.57" departLane="best" from="-169802060#0" to="690136360#4"/>
    <trip id="veh109" type="veh_passenger" depart="3321.04" departLane="best" from="41196358#1" to="133626287#3"/>
    <trip id="veh110" type="veh_passenger" depart="3351.51" departLane="best" departSpeed="max" from="690136360#0" to="41196346#1"/>
    <trip id="veh111" type="veh_passenger" depart="3381.97" departLane="best" from="-41196346#1" to="690136360#4"/>
    <trip id="veh112" type="veh_passenger" depart="3412.44" departLane="best" departSpeed="max" from="690136360#0" to="690136360#4"/>
    <trip id="veh113" type="veh_passenger" depart="3442.91" departLane="best" departSpeed="max" from="133626287#0" to="-41196347#0"/>
    <trip id="veh114" type="veh_passenger" depart="3473.38" departLane="best" departSpeed="max" from="690136360#0" to="690136360#4"/>
    <trip id="veh115" type="veh_passenger" depart="3503.85" departLane="best" departSpeed="max" from="133626287#0" to="41196358#1"/>
    <trip id="veh116" type="veh_passenger" depart="3534.32" departLane="best" departSpeed="max" from="690136360#0" to="793731188#0"/>
    <trip id="veh117" type="veh_passenger" depart="3564.78" departLane="best" departSpeed="max" from="690136360#0" to="690136360#4"/>
    <trip id="veh118" type="veh_passenger" depart="3595.25" departLane="best" from="-169802060#1" to="690136360#4"/>
</routes>
