<?xml version="1.0" encoding="UTF-8"?>

<!-- generated on Fri  2 Apr 12:42:57 2021 by Eclipse SUMO netedit Version 1.8.0
<configuration xmlns:xsi="http://www.w3.org/2001/XMLSchema-instance" xsi:noNamespaceSchemaLocation="http://sumo.dlr.de/xsd/netconvertConfiguration.xsd">
    <input>
        <sumo-net-file value="simpleMap.net.xml"/>
    </input>
    <output>
        <output-file value="simpleMap.net.xml"/>
    </output>
    <processing>
        <geometry.min-radius.fix.railways value="false"/>
        <geometry.max-grade.fix value="false"/>
        <offset.disable-normalization value="true"/>
        <lefthand value="true"/>
    </processing>
    <junctions>
        <no-turnarounds value="true"/>
        <junctions.corner-detail value="5"/>
        <junctions.limit-turn-speed value="5.5"/>
        <rectangular-lane-cut value="false"/>
    </junctions>
    <pedestrian>
        <walkingareas value="false"/>
    </pedestrian>
    <report>
        <aggregate-warnings value="5"/>
    </report>
</configuration>
-->

<net version="1.6" junctionCornerDetail="5" lefthand="true" limitTurnSpeed="5.50" xmlns:xsi="http://www.w3.org/2001/XMLSchema-instance" xsi:noNamespaceSchemaLocation="http://sumo.dlr.de/xsd/net_file.xsd">

    <location netOffset="0.00,0.00" convBoundary="-250.00,-250.00,250.00,250.00" origBoundary="-10000000000.00,-10000000000.00,10000000000.00,10000000000.00" projParameter="!"/>

    <edge id=":T_0" function="internal">
        <lane id=":T_0_0" index="0" speed="6.51" length="9.03" shape="-1.60,-7.20 -1.95,-4.75 -3.00,-3.00 -4.75,-1.95 -7.20,-1.60"/>
    </edge>
    <edge id=":T_1" function="internal">
        <lane id=":T_1_0" index="0" speed="13.89" length="14.40" shape="-1.60,-7.20 -1.60,7.20"/>
    </edge>
    <edge id=":T_2" function="internal">
        <lane id=":T_2_0" index="0" speed="8.00" length="14.19" shape="-1.60,-7.20 -1.05,-3.35 0.60,-0.60 3.35,1.05 7.20,1.60"/>
    </edge>
    <edge id=":T_3" function="internal">
        <lane id=":T_3_0" index="0" speed="6.51" length="9.03" shape="7.20,-1.60 4.75,-1.95 3.00,-3.00 1.95,-4.75 1.60,-7.20"/>
    </edge>
    <edge id=":T_4" function="internal">
        <lane id=":T_4_0" index="0" speed="13.89" length="14.40" shape="7.20,-1.60 -7.20,-1.60"/>
    </edge>
    <edge id=":T_5" function="internal">
        <lane id=":T_5_0" index="0" speed="8.00" length="14.19" shape="7.20,-1.60 3.35,-1.05 0.60,0.60 -1.05,3.35 -1.60,7.20"/>
    </edge>
    <edge id=":T_6" function="internal">
        <lane id=":T_6_0" index="0" speed="6.51" length="9.03" shape="1.60,7.20 1.95,4.75 3.00,3.00 4.75,1.95 7.20,1.60"/>
    </edge>
    <edge id=":T_7" function="internal">
        <lane id=":T_7_0" index="0" speed="13.89" length="14.40" shape="1.60,7.20 1.60,-7.20"/>
    </edge>
    <edge id=":T_8" function="internal">
        <lane id=":T_8_0" index="0" speed="8.00" length="14.19" shape="1.60,7.20 1.05,3.35 -0.60,0.60 -3.35,-1.05 -7.20,-1.60"/>
    </edge>
    <edge id=":T_9" function="internal">
        <lane id=":T_9_0" index="0" speed="6.51" length="9.03" shape="-7.20,1.60 -4.75,1.95 -3.00,3.00 -1.95,4.75 -1.60,7.20"/>
    </edge>
    <edge id=":T_10" function="internal">
        <lane id=":T_10_0" index="0" speed="13.89" length="14.40" shape="-7.20,1.60 7.20,1.60"/>
    </edge>
    <edge id=":T_11" function="internal">
        <lane id=":T_11_0" index="0" speed="8.00" length="14.19" shape="-7.20,1.60 -3.35,1.05 -0.60,-0.60 1.05,-3.35 1.60,-7.20"/>
    </edge>

    <edge id="E2T" from="E" to="T" priority="-1">
        <lane id="E2T_0" index="0" speed="13.89" length="242.80" shape="250.00,-1.60 7.20,-1.60"/>
    </edge>
    <edge id="N2T" from="N" to="T" priority="-1">
        <lane id="N2T_0" index="0" speed="13.89" length="242.80" shape="1.60,250.00 1.60,7.20"/>
    </edge>
    <edge id="S2T" from="S" to="T" priority="-1">
        <lane id="S2T_0" index="0" speed="13.89" length="242.80" shape="-1.60,-250.00 -1.60,-7.20"/>
    </edge>
    <edge id="T2E" from="T" to="E" priority="-1">
        <lane id="T2E_0" index="0" speed="13.89" length="242.80" shape="7.20,1.60 250.00,1.60"/>
    </edge>
    <edge id="T2N" from="T" to="N" priority="-1">
        <lane id="T2N_0" index="0" speed="13.89" length="242.80" shape="-1.60,7.20 -1.60,250.00"/>
    </edge>
    <edge id="T2S" from="T" to="S" priority="-1">
        <lane id="T2S_0" index="0" speed="13.89" length="242.80" shape="1.60,-7.20 1.60,-250.00"/>
    </edge>
    <edge id="T2W" from="T" to="W" priority="-1">
        <lane id="T2W_0" index="0" speed="13.89" length="242.80" shape="-7.20,-1.60 -250.00,-1.60"/>
    </edge>
    <edge id="W2T" from="W" to="T" priority="-1">
        <lane id="W2T_0" index="0" speed="13.89" length="242.80" shape="-250.00,1.60 -7.20,1.60"/>
    </edge>

    <tlLogic id="t0" type="static" programID="0" offset="0">
        <phase duration="30" state="GGgrrrrrrrrr" name="g0"/>
        <phase duration="3"  state="yyyrrrrrrrrr" name="y0"/>
        <phase duration="30" state="rrrGGgrrrrrr" name="g1"/>
        <phase duration="3"  state="rrryyyrrrrrr" name="y1"/>
        <phase duration="30" state="rrrrrrGGgrrr" name="g2"/>
        <phase duration="3"  state="rrrrrryyyrrr" name="y2"/>
        <phase duration="30" state="rrrrrrrrrGGg" name="g3"/>
        <phase duration="3"  state="rrrrrrrrryyy" name="y3"/>
    </tlLogic>

    <junction id="E" type="dead_end" x="250.00" y="0.00" incLanes="T2E_0" intLanes="" shape="250.00,-0.00 250.00,3.20 250.00,-0.00"/>
    <junction id="N" type="dead_end" x="0.00" y="250.00" incLanes="T2N_0" intLanes="" shape="0.00,250.00 -3.20,250.00 0.00,250.00"/>
    <junction id="S" type="dead_end" x="0.00" y="-250.00" incLanes="T2S_0" intLanes="" shape="0.00,-250.00 3.20,-250.00 0.00,-250.00"/>
    <junction id="T" type="traffic_light" x="0.00" y="0.00" incLanes="S2T_0 E2T_0 N2T_0 W2T_0" intLanes=":T_0_0 :T_1_0 :T_2_0 :T_3_0 :T_4_0 :T_5_0 :T_6_0 :T_7_0 :T_8_0 :T_9_0 :T_10_0 :T_11_0" shape="-3.20,-7.20 3.20,-7.20 3.64,-4.98 4.20,-4.20 4.98,-3.64 5.98,-3.31 7.20,-3.20 7.20,3.20 4.98,3.64 4.20,4.20 3.64,4.98 3.31,5.98 3.20,7.20 -3.20,7.20 -3.64,4.98 -4.20,4.20 -4.98,3.64 -5.98,3.31 -7.20,3.20 -7.20,-3.20 -4.98,-3.64 -4.20,-4.20 -3.64,-4.98 -3.31,-5.98" fringe="outer">
        <request index="0"  response="000000000000" foes="000100010000" cont="0"/>
        <request index="1"  response="000000000000" foes="111100110000" cont="0"/>
        <request index="2"  response="000011000000" foes="110011110000" cont="0"/>
        <request index="3"  response="000010000000" foes="100010000000" cont="0"/>
        <request index="4"  response="000110000111" foes="100110000111" cont="0"/>
        <request index="5"  response="011110000110" foes="011110000110" cont="0"/>
        <request index="6"  response="000000000000" foes="010000000100" cont="0"/>
        <request index="7"  response="000000000000" foes="110000111100" cont="0"/>
        <request index="8"  response="000000000011" foes="110000110011" cont="0"/>
        <request index="9"  response="000000000010" foes="000000100010" cont="0"/>
        <request index="10" response="000111000110" foes="000111100110" cont="0"/>
        <request index="11" response="000110011110" foes="000110011110" cont="0"/>
    </junction>
    <junction id="W" type="dead_end" x="-250.00" y="0.00" incLanes="T2W_0" intLanes="" shape="-250.00,-0.00 -250.00,-3.20 -250.00,-0.00"/>

    <connection from="E2T" to="T2S" fromLane="0" toLane="0" via=":T_3_0" tl="t0" linkIndex="3" dir="l" state="o"/>
    <connection from="E2T" to="T2W" fromLane="0" toLane="0" via=":T_4_0" tl="t0" linkIndex="4" dir="s" state="o"/>
    <connection from="E2T" to="T2N" fromLane="0" toLane="0" via=":T_5_0" tl="t0" linkIndex="5" dir="r" state="o"/>
    <connection from="N2T" to="T2E" fromLane="0" toLane="0" via=":T_6_0" tl="t0" linkIndex="6" dir="l" state="O"/>
    <connection from="N2T" to="T2S" fromLane="0" toLane="0" via=":T_7_0" tl="t0" linkIndex="7" dir="s" state="O"/>
    <connection from="N2T" to="T2W" fromLane="0" toLane="0" via=":T_8_0" tl="t0" linkIndex="8" dir="r" state="o"/>
    <connection from="S2T" to="T2W" fromLane="0" toLane="0" via=":T_0_0" tl="t0" linkIndex="0" dir="l" state="O"/>
    <connection from="S2T" to="T2N" fromLane="0" toLane="0" via=":T_1_0" tl="t0" linkIndex="1" dir="s" state="O"/>
    <connection from="S2T" to="T2E" fromLane="0" toLane="0" via=":T_2_0" tl="t0" linkIndex="2" dir="r" state="o"/>
    <connection from="W2T" to="T2N" fromLane="0" toLane="0" via=":T_9_0" tl="t0" linkIndex="9" dir="l" state="o"/>
    <connection from="W2T" to="T2E" fromLane="0" toLane="0" via=":T_10_0" tl="t0" linkIndex="10" dir="s" state="o"/>
    <connection from="W2T" to="T2S" fromLane="0" toLane="0" via=":T_11_0" tl="t0" linkIndex="11" dir="r" state="o"/>

    <connection from=":T_0" to="T2W" fromLane="0" toLane="0" dir="l" state="M"/>
    <connection from=":T_1" to="T2N" fromLane="0" toLane="0" dir="s" state="M"/>
    <connection from=":T_2" to="T2E" fromLane="0" toLane="0" dir="r" state="M"/>
    <connection from=":T_3" to="T2S" fromLane="0" toLane="0" dir="l" state="M"/>
    <connection from=":T_4" to="T2W" fromLane="0" toLane="0" dir="s" state="M"/>
    <connection from=":T_5" to="T2N" fromLane="0" toLane="0" dir="r" state="M"/>
    <connection from=":T_6" to="T2E" fromLane="0" toLane="0" dir="l" state="M"/>
    <connection from=":T_7" to="T2S" fromLane="0" toLane="0" dir="s" state="M"/>
    <connection from=":T_8" to="T2W" fromLane="0" toLane="0" dir="r" state="M"/>
    <connection from=":T_9" to="T2N" fromLane="0" toLane="0" dir="l" state="M"/>
    <connection from=":T_10" to="T2E" fromLane="0" toLane="0" dir="s" state="M"/>
    <connection from=":T_11" to="T2S" fromLane="0" toLane="0" dir="r" state="M"/>

</net>