<?xml version="1.0" encoding="UTF-8"?>

<!-- generated on Sun Mar 21 21:32:33 2021 by Eclipse SUMO netconvert Version 1.8.0
<configuration xmlns:xsi="http://www.w3.org/2001/XMLSchema-instance" xsi:noNamespaceSchemaLocation="http://sumo.dlr.de/xsd/netconvertConfiguration.xsd">

    <input>
        <type-files value="/usr/local/opt/sumo/share/sumo/data/typemap/osmNetconvert.typ.xml"/>
        <osm-files value="osm_bbox.osm.xml"/>
    </input>

    <output>
        <output-file value="osm.net.xml"/>
        <output.street-names value="true"/>
        <output.original-names value="true"/>
    </output>

    <projection>
        <proj.utm value="true"/>
    </projection>

    <processing>
        <geometry.remove value="true"/>
        <roundabouts.guess value="true"/>
    </processing>

    <tls_building>
        <tls.discard-simple value="true"/>
        <tls.join value="true"/>
        <tls.guess-signals value="true"/>
        <tls.default-type value="actuated"/>
    </tls_building>

    <ramp_guessing>
        <ramps.guess value="true"/>
    </ramp_guessing>

    <junctions>
        <junctions.join value="true"/>
        <junctions.corner-detail value="5"/>
    </junctions>

    <report>
        <verbose value="true"/>
        <aggregate-warnings value="5"/>
    </report>

</configuration>
-->

<net version="1.6" junctionCornerDetail="5" limitTurnSpeed="5.50" xmlns:xsi="http://www.w3.org/2001/XMLSchema-instance" xsi:noNamespaceSchemaLocation="http://sumo.dlr.de/xsd/net_file.xsd">

    <location netOffset="-774270.35,-1431111.40" convBoundary="0.00,0.00,1252.32,1360.36" origBoundary="77.527842,12.933193,77.539370,12.945471" projParameter="+proj=utm +zone=43 +ellps=WGS84 +datum=WGS84 +units=m +no_defs"/>

    <type id="highway.bridleway" priority="1" numLanes="1" speed="2.78" allow="pedestrian" oneway="1" width="2.00"/>
    <type id="highway.bus_guideway" priority="1" numLanes="1" speed="27.78" allow="bus" oneway="1"/>
    <type id="highway.cycleway" priority="1" numLanes="1" speed="8.33" allow="bicycle" oneway="0" width="1.00"/>
    <type id="highway.footway" priority="1" numLanes="1" speed="2.78" allow="pedestrian" oneway="1" width="2.00"/>
    <type id="highway.ford" priority="1" numLanes="1" speed="2.78" allow="army" oneway="0"/>
    <type id="highway.living_street" priority="2" numLanes="1" speed="2.78" disallow="tram rail_urban rail rail_electric rail_fast ship" oneway="0"/>
    <type id="highway.motorway" priority="14" numLanes="2" speed="39.44" allow="private emergency authority army vip passenger hov taxi bus coach delivery truck trailer motorcycle evehicle custom1 custom2" oneway="1"/>
    <type id="highway.motorway_link" priority="9" numLanes="1" speed="22.22" allow="private emergency authority army vip passenger hov taxi bus coach delivery truck trailer motorcycle evehicle custom1 custom2" oneway="1"/>
    <type id="highway.path" priority="1" numLanes="1" speed="2.78" allow="pedestrian bicycle" oneway="0" width="2.00"/>
    <type id="highway.pedestrian" priority="1" numLanes="1" speed="2.78" allow="pedestrian" oneway="1" width="2.00"/>
    <type id="highway.primary" priority="12" numLanes="2" speed="27.78" disallow="tram rail_urban rail rail_electric rail_fast ship" oneway="0"/>
    <type id="highway.primary_link" priority="7" numLanes="1" speed="22.22" disallow="tram rail_urban rail rail_electric rail_fast ship" oneway="0"/>
    <type id="highway.raceway" priority="15" numLanes="2" speed="83.33" allow="vip" oneway="0"/>
    <type id="highway.residential" priority="3" numLanes="1" speed="13.89" disallow="tram rail_urban rail rail_electric rail_fast ship" oneway="0"/>
    <type id="highway.secondary" priority="11" numLanes="1" speed="27.78" disallow="tram rail_urban rail rail_electric rail_fast ship" oneway="0"/>
    <type id="highway.secondary_link" priority="6" numLanes="1" speed="22.22" disallow="tram rail_urban rail rail_electric rail_fast ship" oneway="0"/>
    <type id="highway.service" priority="1" numLanes="1" speed="5.56" allow="pedestrian delivery bicycle" oneway="0"/>
    <type id="highway.stairs" priority="1" numLanes="1" speed="1.39" allow="pedestrian" oneway="1" width="2.00"/>
    <type id="highway.step" priority="1" numLanes="1" speed="1.39" allow="pedestrian" oneway="1" width="2.00"/>
    <type id="highway.steps" priority="1" numLanes="1" speed="1.39" allow="pedestrian" oneway="1" width="2.00"/>
    <type id="highway.tertiary" priority="10" numLanes="1" speed="22.22" disallow="tram rail_urban rail rail_electric rail_fast ship" oneway="0"/>
    <type id="highway.tertiary_link" priority="5" numLanes="1" speed="22.22" disallow="tram rail_urban rail rail_electric rail_fast ship" oneway="0"/>
    <type id="highway.track" priority="1" numLanes="1" speed="5.56" allow="pedestrian motorcycle moped bicycle" oneway="0"/>
    <type id="highway.trunk" priority="13" numLanes="2" speed="27.78" disallow="pedestrian bicycle tram rail_urban rail rail_electric rail_fast ship" oneway="0"/>
    <type id="highway.trunk_link" priority="8" numLanes="1" speed="22.22" disallow="pedestrian bicycle tram rail_urban rail rail_electric rail_fast ship" oneway="0"/>
    <type id="highway.unclassified" priority="4" numLanes="1" speed="13.89" disallow="tram rail_urban rail rail_electric rail_fast ship" oneway="0"/>
    <type id="highway.unsurfaced" priority="1" numLanes="1" speed="8.33" disallow="tram rail_urban rail rail_electric rail_fast ship" oneway="0"/>
    <type id="railway.highspeed" priority="21" numLanes="1" speed="69.44" allow="rail_fast" oneway="1"/>
    <type id="railway.light_rail" priority="19" numLanes="1" speed="27.78" allow="rail_urban" oneway="1"/>
    <type id="railway.preserved" priority="16" numLanes="1" speed="27.78" allow="rail" oneway="1"/>
    <type id="railway.rail" priority="20" numLanes="1" speed="44.44" allow="rail" oneway="1"/>
    <type id="railway.subway" priority="18" numLanes="1" speed="27.78" allow="rail_urban" oneway="1"/>
    <type id="railway.tram" priority="17" numLanes="1" speed="13.89" allow="tram" oneway="1"/>

    <edge id=":172851175#2-AddedOnRampNode_0" function="internal">
        <lane id=":172851175#2-AddedOnRampNode_0_0" index="0" allow="private emergency authority army vip passenger hov taxi bus coach delivery truck trailer motorcycle evehicle custom1 custom2" speed="22.22" length="0.10" shape="563.10,790.87 563.10,790.87"/>
        <lane id=":172851175#2-AddedOnRampNode_0_1" index="1" allow="private emergency authority army vip passenger hov taxi bus coach delivery truck trailer motorcycle evehicle custom1 custom2" speed="22.22" length="0.10" shape="560.46,792.68 560.46,792.68"/>
        <lane id=":172851175#2-AddedOnRampNode_0_2" index="2" allow="private emergency authority army vip passenger hov taxi bus coach delivery truck trailer motorcycle evehicle custom1 custom2" speed="22.22" length="0.10" shape="557.83,794.49 557.83,794.49"/>
        <lane id=":172851175#2-AddedOnRampNode_0_3" index="3" allow="private emergency authority army vip passenger hov taxi bus coach delivery truck trailer motorcycle evehicle custom1 custom2" speed="22.22" length="0.10" shape="555.19,796.30 555.19,796.30"/>
        <lane id=":172851175#2-AddedOnRampNode_0_4" index="4" allow="private emergency authority army vip passenger hov taxi bus coach delivery truck trailer motorcycle evehicle custom1 custom2" speed="22.22" length="0.10" shape="552.55,798.12 552.55,798.12"/>
    </edge>
    <edge id=":1836983091_0" function="internal">
        <lane id=":1836983091_0_0" index="0" disallow="tram rail_urban rail rail_electric rail_fast ship" speed="3.65" length="4.67" shape="539.44,74.83 540.24,73.62 541.03,73.22 541.84,73.62 542.64,74.82"/>
    </edge>
    <edge id=":1836983107_0" function="internal">
        <lane id=":1836983107_0_0" index="0" disallow="tram rail_urban rail rail_electric rail_fast ship" speed="7.56" length="9.86" shape="550.53,256.18 547.77,256.72 545.65,257.83 544.18,259.52 543.34,261.78"/>
    </edge>
    <edge id=":1836983107_1" function="internal">
        <lane id=":1836983107_1_0" index="0" disallow="tram rail_urban rail rail_electric rail_fast ship" speed="7.90" length="14.41" shape="550.53,256.18 546.56,255.94 543.69,254.46 541.92,251.77 541.26,247.85"/>
    </edge>
    <edge id=":1836983107_2" function="internal">
        <lane id=":1836983107_2_0" index="0" disallow="tram rail_urban rail rail_electric rail_fast ship" speed="3.65" length="4.67" shape="550.53,256.18 549.27,255.48 548.81,254.72 549.14,253.89 550.27,252.99"/>
    </edge>
    <edge id=":1836983107_3" function="internal">
        <lane id=":1836983107_3_0" index="0" disallow="tram rail_urban rail rail_electric rail_fast ship" speed="6.39" length="9.04" shape="544.45,247.76 544.87,250.22 545.98,251.92 547.78,252.84 550.27,252.99"/>
    </edge>
    <edge id=":1836983107_4" function="internal">
        <lane id=":1836983107_4_0" index="0" disallow="tram rail_urban rail rail_electric rail_fast ship" speed="22.22" length="14.09" shape="544.45,247.76 544.47,251.37 544.32,254.81 543.95,258.23 543.34,261.78"/>
    </edge>
    <edge id=":1836983107_5" function="internal">
        <lane id=":1836983107_5_0" index="0" disallow="tram rail_urban rail rail_electric rail_fast ship" speed="3.65" length="2.34" shape="544.45,247.76 543.68,248.98 542.90,249.40"/>
    </edge>
    <edge id=":1836983107_9" function="internal">
        <lane id=":1836983107_9_0" index="0" disallow="tram rail_urban rail rail_electric rail_fast ship" speed="3.65" length="2.34" shape="542.90,249.40 542.09,249.02 541.26,247.85"/>
    </edge>
    <edge id=":1836983107_6" function="internal">
        <lane id=":1836983107_6_0" index="0" disallow="tram rail_urban rail rail_electric rail_fast ship" speed="22.22" length="13.38" shape="540.20,261.15 540.80,257.70 541.15,254.53 541.28,251.34 541.26,247.85"/>
    </edge>
    <edge id=":1836983107_7" function="internal">
        <lane id=":1836983107_7_0" index="0" disallow="tram rail_urban rail rail_electric rail_fast ship" speed="8.91" length="5.26" shape="540.20,261.15 541.40,257.84 542.53,256.50"/>
    </edge>
    <edge id=":1836983107_8" function="internal">
        <lane id=":1836983107_8_0" index="0" disallow="tram rail_urban rail rail_electric rail_fast ship" speed="3.65" length="2.34" shape="540.20,261.15 541.23,260.13 542.09,259.90"/>
    </edge>
    <edge id=":1836983107_10" function="internal">
        <lane id=":1836983107_10_0" index="0" disallow="tram rail_urban rail rail_electric rail_fast ship" speed="8.91" length="8.76" shape="542.53,256.50 543.48,255.38 546.43,253.76 550.27,252.99"/>
    </edge>
    <edge id=":1836983107_11" function="internal">
        <lane id=":1836983107_11_0" index="0" disallow="tram rail_urban rail rail_electric rail_fast ship" speed="3.65" length="2.34" shape="542.09,259.90 542.79,260.45 543.34,261.78"/>
    </edge>
    <edge id=":1836983204_0" function="internal">
        <lane id=":1836983204_0_0" index="0" allow="private emergency authority army vip passenger hov taxi bus coach delivery truck trailer motorcycle evehicle custom1 custom2" speed="22.22" length="17.88" shape="446.64,565.78 448.49,571.01 449.18,574.76 449.55,578.62 450.40,584.15"/>
        <lane id=":1836983204_0_1" index="1" allow="private emergency authority army vip passenger hov taxi bus coach delivery truck trailer motorcycle evehicle custom1 custom2" speed="22.22" length="17.88" shape="443.68,567.01 445.46,572.07 446.12,575.70 446.45,579.43 447.26,584.77"/>
        <lane id=":1836983204_0_2" index="2" allow="private emergency authority army vip passenger hov taxi bus coach delivery truck trailer motorcycle evehicle custom1 custom2" speed="22.22" length="17.88" shape="440.73,568.25 442.44,573.12 443.05,576.63 443.35,580.24 444.13,585.40"/>
        <lane id=":1836983204_0_3" index="3" allow="private emergency authority army vip passenger hov taxi bus coach delivery truck trailer motorcycle evehicle custom1 custom2" speed="22.22" length="17.88" shape="437.78,569.48 439.42,574.18 439.98,577.57 440.25,581.05 440.99,586.03"/>
    </edge>
    <edge id=":1836983204_4" function="internal">
        <lane id=":1836983204_4_0" index="0" allow="private emergency authority army vip passenger hov taxi bus coach delivery truck trailer motorcycle evehicle custom1 custom2" speed="16.67" length="16.06" shape="434.82,570.71 436.55,575.12 437.37,578.29 437.58,581.57 437.49,586.33"/>
    </edge>
    <edge id=":1836983204_5" function="internal">
        <lane id=":1836983204_5_0" index="0" allow="private emergency authority army vip passenger hov taxi bus coach delivery truck trailer motorcycle evehicle custom1 custom2" speed="16.67" length="14.70" shape="431.87,571.94 433.45,575.98 434.20,578.88 434.38,581.89 434.29,586.25"/>
    </edge>
    <edge id=":1836983206_0" function="internal">
        <lane id=":1836983206_0_0" index="0" allow="private emergency authority army vip passenger hov taxi bus coach delivery truck trailer motorcycle evehicle custom1 custom2" speed="22.22" length="17.54" shape="451.50,583.91 449.32,578.97 447.67,575.63 446.25,572.23 444.72,567.07"/>
        <lane id=":1836983206_0_1" index="1" allow="private emergency authority army vip passenger hov taxi bus coach delivery truck trailer motorcycle evehicle custom1 custom2" speed="22.22" length="17.54" shape="454.47,582.71 452.33,577.88 450.72,574.63 449.32,571.31 447.82,566.28"/>
        <lane id=":1836983206_0_2" index="2" allow="private emergency authority army vip passenger hov taxi bus coach delivery truck trailer motorcycle evehicle custom1 custom2" speed="22.22" length="17.54" shape="457.43,581.50 455.35,576.80 453.76,573.63 452.39,570.40 450.92,565.49"/>
        <lane id=":1836983206_0_3" index="3" allow="private emergency authority army vip passenger hov taxi bus coach delivery truck trailer motorcycle evehicle custom1 custom2" speed="22.22" length="17.54" shape="460.40,580.30 458.36,575.72 456.80,572.63 455.45,569.48 454.02,564.70"/>
    </edge>
    <edge id=":1836983206_4" function="internal">
        <lane id=":1836983206_4_0" index="0" allow="private emergency authority army vip passenger hov taxi bus coach delivery truck trailer motorcycle evehicle custom1 custom2" speed="16.11" length="16.15" shape="463.52,578.43 461.20,575.87 459.64,572.83 458.42,568.96 457.12,563.91"/>
    </edge>
    <edge id=":1836983222_0" function="internal">
        <lane id=":1836983222_0_0" index="0" disallow="pedestrian bicycle tram rail_urban rail rail_electric rail_fast ship" speed="16.67" length="8.56" shape="582.86,612.02 581.21,614.21 579.79,615.47 578.21,616.59 576.05,618.36"/>
        <lane id=":1836983222_0_1" index="1" disallow="pedestrian bicycle tram rail_urban rail rail_electric rail_fast ship" speed="16.67" length="8.56" shape="580.17,610.27 578.66,612.27 577.35,613.39 575.88,614.39 573.90,615.99"/>
        <lane id=":1836983222_0_2" index="2" disallow="pedestrian bicycle tram rail_urban rail rail_electric rail_fast ship" speed="16.67" length="8.56" shape="577.49,608.53 576.11,610.32 574.90,611.31 573.54,612.19 571.74,613.62"/>
    </edge>
    <edge id=":1836983222_3" function="internal">
        <lane id=":1836983222_3_0" index="0" allow="private emergency authority army vip passenger hov taxi bus coach delivery truck trailer motorcycle evehicle custom1 custom2" speed="7.72" length="7.80" shape="574.81,606.79 573.41,608.59 571.89,609.85 570.25,610.58 568.51,610.77"/>
    </edge>
    <edge id=":1836983267_0" function="internal">
        <lane id=":1836983267_0_0" index="0" allow="private emergency authority army vip passenger hov taxi bus coach delivery truck trailer motorcycle evehicle custom1 custom2" speed="22.22" length="20.43" shape="498.45,689.55 502.24,694.48 504.95,697.77 507.50,701.18 510.76,706.45"/>
        <lane id=":1836983267_0_1" index="1" allow="private emergency authority army vip passenger hov taxi bus coach delivery truck trailer motorcycle evehicle custom1 custom2" speed="22.22" length="20.43" shape="495.87,691.44 499.59,696.29 502.27,699.52 504.78,702.87 507.99,708.06"/>
        <lane id=":1836983267_0_2" index="2" allow="private emergency authority army vip passenger hov taxi bus coach delivery truck trailer motorcycle evehicle custom1 custom2" speed="22.22" length="20.43" shape="493.28,693.32 496.95,698.09 499.59,701.27 502.06,704.56 505.22,709.66"/>
        <lane id=":1836983267_0_3" index="3" allow="private emergency authority army vip passenger hov taxi bus coach delivery truck trailer motorcycle evehicle custom1 custom2" speed="22.22" length="20.43" shape="490.70,695.21 494.31,699.90 496.91,703.02 499.34,706.25 502.45,711.26"/>
    </edge>
    <edge id=":1836983267_4" function="internal">
        <lane id=":1836983267_4_0" index="0" allow="private emergency authority army vip passenger hov taxi bus coach delivery truck trailer motorcycle evehicle custom1 custom2" speed="22.22" length="19.20" shape="488.12,697.66 490.89,700.20 493.56,703.34 496.40,707.44 499.68,712.86"/>
    </edge>
    <edge id=":1836983279_0" function="internal">
        <lane id=":1836983279_0_0" index="0" allow="private emergency authority army vip passenger hov taxi bus coach delivery truck trailer motorcycle evehicle custom1 custom2" speed="22.22" length="19.19" shape="549.41,758.04 547.15,755.07 545.18,751.47 543.01,746.96 540.18,741.28"/>
    </edge>
    <edge id=":1836983279_1" function="internal">
        <lane id=":1836983279_1_0" index="0" allow="private emergency authority army vip passenger hov taxi bus coach delivery truck trailer motorcycle evehicle custom1 custom2" speed="22.22" length="20.69" shape="542.96,763.62 538.91,758.61 535.51,755.63 532.30,752.55 528.83,747.19"/>
        <lane id=":1836983279_1_1" index="1" allow="private emergency authority army vip passenger hov taxi bus coach delivery truck trailer motorcycle evehicle custom1 custom2" speed="22.22" length="20.69" shape="545.40,761.51 541.47,756.68 538.16,753.83 535.03,750.88 531.67,745.71"/>
        <lane id=":1836983279_1_2" index="2" allow="private emergency authority army vip passenger hov taxi bus coach delivery truck trailer motorcycle evehicle custom1 custom2" speed="22.22" length="20.69" shape="547.84,759.40 544.04,754.75 540.81,752.03 537.77,749.20 534.51,744.24"/>
        <lane id=":1836983279_1_3" index="3" allow="private emergency authority army vip passenger hov taxi bus coach delivery truck trailer motorcycle evehicle custom1 custom2" speed="22.22" length="20.69" shape="550.28,757.29 546.60,752.83 543.46,750.23 540.50,747.53 537.35,742.76"/>
    </edge>
    <edge id=":1836983313_0" function="internal">
        <lane id=":1836983313_0_0" index="0" allow="private emergency authority army vip passenger hov taxi bus coach delivery truck trailer motorcycle evehicle custom1 custom2" speed="22.22" length="17.97" shape="574.73,807.78 577.57,812.84 578.89,816.68 580.34,820.43 583.53,825.22"/>
        <lane id=":1836983313_0_1" index="1" allow="private emergency authority army vip passenger hov taxi bus coach delivery truck trailer motorcycle evehicle custom1 custom2" speed="22.22" length="17.97" shape="572.09,809.60 574.73,814.38 575.90,818.03 577.18,821.61 580.16,826.15"/>
        <lane id=":1836983313_0_2" index="2" allow="private emergency authority army vip passenger hov taxi bus coach delivery truck trailer motorcycle evehicle custom1 custom2" speed="22.22" length="17.97" shape="569.45,811.41 571.90,815.92 572.91,819.39 574.03,822.79 576.79,827.07"/>
        <lane id=":1836983313_0_3" index="3" allow="private emergency authority army vip passenger hov taxi bus coach delivery truck trailer motorcycle evehicle custom1 custom2" speed="22.22" length="17.97" shape="566.81,813.22 569.06,817.46 569.92,820.75 570.88,823.97 573.41,827.99"/>
    </edge>
    <edge id=":1836983313_4" function="internal">
        <lane id=":1836983313_4_0" index="0" allow="private emergency authority army vip passenger hov taxi bus coach delivery truck trailer motorcycle evehicle custom1 custom2" speed="14.48" length="15.09" shape="564.18,815.03 566.75,819.07 568.31,822.39 569.03,825.52 569.07,828.94"/>
    </edge>
    <edge id=":1836983319_0" function="internal">
        <lane id=":1836983319_0_0" index="0" disallow="pedestrian bicycle tram rail_urban rail rail_electric rail_fast ship" speed="27.78" length="1.91" shape="488.02,769.96 488.32,769.35 488.52,768.93 488.73,768.52 489.08,767.94"/>
        <lane id=":1836983319_0_1" index="1" disallow="pedestrian bicycle tram rail_urban rail rail_electric rail_fast ship" speed="27.78" length="1.91" shape="491.09,770.98 491.29,770.57 491.42,770.29 491.57,770.01 491.80,769.63"/>
    </edge>
    <edge id=":1836983319_2" function="internal">
        <lane id=":1836983319_2_0" index="0" allow="private emergency authority army vip passenger hov taxi bus coach delivery truck trailer motorcycle evehicle custom1 custom2" speed="25.00" length="1.82" shape="492.72,771.51 494.52,771.31"/>
    </edge>
    <edge id=":1836983356_0" function="internal">
        <lane id=":1836983356_0_0" index="0" disallow="pedestrian bicycle tram rail_urban rail rail_electric rail_fast ship" speed="27.78" length="4.19" shape="428.10,875.35 430.25,871.73"/>
        <lane id=":1836983356_0_1" index="1" disallow="pedestrian bicycle tram rail_urban rail rail_electric rail_fast ship" speed="27.78" length="4.19" shape="430.87,876.95 433.00,873.37"/>
    </edge>
    <edge id=":1836983356_2" function="internal">
        <lane id=":1836983356_2_0" index="0" allow="private emergency authority army vip passenger hov taxi bus coach delivery truck trailer motorcycle evehicle custom1 custom2" speed="7.73" length="4.01" shape="433.64,878.55 434.26,877.55 434.79,876.92 435.49,876.47 436.57,876.00"/>
    </edge>
    <edge id=":1836983374_0" function="internal">
        <lane id=":1836983374_0_0" index="0" disallow="pedestrian bicycle tram rail_urban rail rail_electric rail_fast ship" speed="13.89" length="21.86" shape="410.60,887.57 399.06,905.89"/>
        <lane id=":1836983374_0_1" index="1" disallow="pedestrian bicycle tram rail_urban rail rail_electric rail_fast ship" speed="13.89" length="21.86" shape="407.89,885.86 396.25,904.36"/>
        <lane id=":1836983374_0_2" index="2" disallow="pedestrian bicycle tram rail_urban rail rail_electric rail_fast ship" speed="13.89" length="21.86" shape="405.19,884.15 393.44,902.83"/>
    </edge>
    <edge id=":1836983374_3" function="internal">
        <lane id=":1836983374_3_0" index="0" allow="private emergency authority army vip passenger hov taxi bus coach delivery truck trailer motorcycle evehicle custom1 custom2" speed="12.50" length="22.01" shape="400.00,882.50 400.27,888.76 400.21,893.53 399.11,898.24 396.25,904.36"/>
        <lane id=":1836983374_3_1" index="1" allow="private emergency authority army vip passenger hov taxi bus coach delivery truck trailer motorcycle evehicle custom1 custom2" speed="12.50" length="22.01" shape="396.78,882.15 397.08,888.30 397.09,892.79 396.12,897.12 393.44,902.83"/>
    </edge>
    <edge id=":1836983387_0" function="internal">
        <lane id=":1836983387_0_0" index="0" allow="private emergency authority army vip passenger hov taxi bus coach delivery truck trailer motorcycle evehicle custom1 custom2" speed="22.22" length="25.22" shape="720.34,977.26 703.11,959.07"/>
        <lane id=":1836983387_0_1" index="1" allow="private emergency authority army vip passenger hov taxi bus coach delivery truck trailer motorcycle evehicle custom1 custom2" speed="22.22" length="25.22" shape="722.74,975.14 705.43,956.87"/>
        <lane id=":1836983387_0_2" index="2" allow="private emergency authority army vip passenger hov taxi bus coach delivery truck trailer motorcycle evehicle custom1 custom2" speed="22.22" length="25.22" shape="725.14,973.02 707.75,954.67"/>
        <lane id=":1836983387_0_3" index="3" allow="private emergency authority army vip passenger hov taxi bus coach delivery truck trailer motorcycle evehicle custom1 custom2" speed="22.22" length="25.22" shape="727.54,970.91 710.08,952.47"/>
    </edge>
    <edge id=":1836983387_4" function="internal">
        <lane id=":1836983387_4_0" index="0" allow="private emergency authority army vip passenger hov taxi bus coach delivery truck trailer motorcycle evehicle custom1 custom2" speed="22.22" length="30.40" shape="729.94,968.79 722.95,960.99 717.20,954.63 712.84,949.61 710.02,945.83"/>
    </edge>
    <edge id=":1836983389_0" function="internal">
        <lane id=":1836983389_0_0" index="0" allow="private emergency authority army vip passenger hov taxi bus coach delivery truck trailer motorcycle evehicle custom1 custom2" speed="22.22" length="44.00" shape="673.05,929.71 703.12,961.83"/>
        <lane id=":1836983389_0_1" index="1" allow="private emergency authority army vip passenger hov taxi bus coach delivery truck trailer motorcycle evehicle custom1 custom2" speed="22.22" length="44.00" shape="670.71,931.89 700.78,964.01"/>
        <lane id=":1836983389_0_2" index="2" allow="private emergency authority army vip passenger hov taxi bus coach delivery truck trailer motorcycle evehicle custom1 custom2" speed="22.22" length="44.00" shape="668.38,934.08 698.45,966.20"/>
        <lane id=":1836983389_0_3" index="3" allow="private emergency authority army vip passenger hov taxi bus coach delivery truck trailer motorcycle evehicle custom1 custom2" speed="22.22" length="44.00" shape="666.04,936.27 696.11,968.39"/>
    </edge>
    <edge id=":1836983389_4" function="internal">
        <lane id=":1836983389_4_0" index="0" allow="motorcycle" speed="13.72" length="40.11" shape="666.04,936.27 677.23,948.75 684.68,958.29 688.40,964.89 688.39,968.55"/>
    </edge>
    <edge id=":1836983389_5" function="internal">
        <lane id=":1836983389_5_0" index="0" allow="private emergency authority army vip passenger hov taxi bus coach delivery truck trailer motorcycle evehicle custom1 custom2" speed="22.22" length="44.01" shape="663.13,939.81 668.61,942.83 677.33,948.37 687.79,956.23 698.45,966.20"/>
        <lane id=":1836983389_5_1" index="1" allow="private emergency authority army vip passenger hov taxi bus coach delivery truck trailer motorcycle evehicle custom1 custom2" speed="22.22" length="44.01" shape="663.13,939.81 668.24,943.17 676.17,949.47 685.82,958.08 696.11,968.39"/>
    </edge>
    <edge id=":1836983389_7" function="internal">
        <lane id=":1836983389_7_0" index="0" allow="motorcycle" speed="12.52" length="42.92" shape="663.13,939.81 676.19,947.05 685.85,954.31 690.46,961.50 688.39,968.55"/>
    </edge>
    <edge id=":1836983440_0" function="internal">
        <lane id=":1836983440_0_0" index="0" allow="private emergency authority army vip passenger hov taxi bus coach delivery truck trailer motorcycle evehicle custom1 custom2" speed="12.53" length="15.75" shape="748.59,990.72 741.52,990.82 736.97,991.46 734.92,992.61 735.37,994.28"/>
    </edge>
    <edge id=":1836983440_1" function="internal">
        <lane id=":1836983440_1_0" index="0" allow="private emergency authority army vip passenger hov taxi bus coach delivery truck trailer motorcycle evehicle custom1 custom2" speed="10.76" length="11.49" shape="748.59,990.72 743.30,990.72 739.74,990.97 737.89,991.44 737.77,992.16"/>
    </edge>
    <edge id=":1836983440_2" function="internal">
        <lane id=":1836983440_2_0" index="0" allow="private emergency authority army vip passenger hov taxi bus coach delivery truck trailer motorcycle evehicle custom1 custom2" speed="9.31" length="8.48" shape="748.59,990.72 746.94,990.71 744.25,990.65 741.62,990.46 740.17,990.04"/>
    </edge>
    <edge id=":1836983440_3" function="internal">
        <lane id=":1836983440_3_0" index="0" allow="private emergency authority army vip passenger hov taxi bus coach delivery truck trailer motorcycle evehicle custom1 custom2" speed="8.40" length="6.83" shape="748.59,990.72 746.86,990.52 745.28,989.99 743.85,989.12 742.57,987.92"/>
    </edge>
    <edge id=":1836983440_4" function="internal">
        <lane id=":1836983440_4_0" index="0" allow="private emergency authority army vip passenger hov taxi bus coach delivery truck trailer motorcycle evehicle custom1 custom2" speed="8.01" length="6.16" shape="748.59,990.72 747.69,990.05 746.65,988.54 745.67,986.89 744.97,985.81"/>
    </edge>
    <edge id=":1836983440_5" function="internal">
        <lane id=":1836983440_5_0" index="0" disallow="tram rail_urban rail rail_electric rail_fast ship" speed="3.65" length="4.67" shape="748.59,990.72 747.40,989.89 747.02,989.09 747.43,988.29 748.65,987.52"/>
    </edge>
    <edge id=":1837017377_0" function="internal">
        <lane id=":1837017377_0_0" index="0" disallow="tram rail_urban rail rail_electric rail_fast ship" speed="6.72" length="9.48" shape="1125.06,1146.64 1122.60,1146.81 1120.74,1147.80 1119.49,1149.61 1118.84,1152.23"/>
    </edge>
    <edge id=":1837017377_1" function="internal">
        <lane id=":1837017377_1_0" index="0" disallow="tram rail_urban rail rail_electric rail_fast ship" speed="27.78" length="14.59" shape="1125.06,1146.64 1121.39,1146.37 1117.78,1146.22 1114.18,1146.16 1110.49,1146.19"/>
    </edge>
    <edge id=":1837017377_2" function="internal">
        <lane id=":1837017377_2_0" index="0" disallow="tram rail_urban rail rail_electric rail_fast ship" speed="8.11" length="5.72" shape="1125.06,1146.64 1121.32,1145.78 1119.78,1144.71"/>
    </edge>
    <edge id=":1837017377_3" function="internal">
        <lane id=":1837017377_3_0" index="0" disallow="tram rail_urban rail rail_electric rail_fast ship" speed="3.65" length="2.34" shape="1125.06,1146.64 1123.94,1145.74 1123.61,1144.91"/>
    </edge>
    <edge id=":1837017377_16" function="internal">
        <lane id=":1837017377_16_0" index="0" disallow="tram rail_urban rail rail_electric rail_fast ship" speed="8.11" length="8.34" shape="1119.78,1144.71 1118.69,1143.95 1117.17,1141.14 1116.76,1137.35"/>
    </edge>
    <edge id=":1837017377_17" function="internal">