<configuration>
	<input>
		<net-file value="simpleMap.net.xml" />
		<route-files value="routes.rou.xml" />
    </input>
</configuration>