<?xml version="1.0" encoding="UTF-8"?>

<!-- generated on Sun Mar 21 21:08:33 2021 by Eclipse SUMO duarouter Version 1.8.0
<configuration xmlns:xsi="http://www.w3.org/2001/XMLSchema-instance" xsi:noNamespaceSchemaLocation="http://sumo.dlr.de/xsd/duarouterConfiguration.xsd">

    <input>
        <net-file value="/usr/local/Cellar/sumo/1.8.0/share/sumo/tools/2021-03-21-21-08-25/osm.net.xml"/>
        <route-files value="/usr/local/Cellar/sumo/1.8.0/share/sumo/tools/2021-03-21-21-08-25/osm.passenger.trips.xml"/>
    </input>

    <output>
        <output-file value="/usr/local/Cellar/sumo/1.8.0/share/sumo/tools/2021-03-21-21-08-25/osm.passenger.trips.xml.tmp"/>
        <write-trips value="true"/>
    </output>

    <time>
        <begin value="0"/>
        <end value="3600"/>
    </time>

    <report>
        <no-warnings value="true"/>
        <ignore-errors value="true"/>
        <no-step-log value="true"/>
    </report>

</configuration>
-->

<routes xmlns:xsi="http://www.w3.org/2001/XMLSchema-instance" xsi:noNamespaceSchemaLocation="http://sumo.dlr.de/xsd/routes_file.xsd">
    <vType id="veh_passenger" vClass="passenger"/>
    <trip id="veh1" type="veh_passenger" depart="12.29" departLane="best" from="691997520" to="-309592669"/>
    <trip id="veh2" type="veh_passenger" depart="24.57" departLane="best" from="299649296#0" to="-28104740#0"/>
    <trip id="veh3" type="veh_passenger" depart="36.86" departLane="best" from="-497108256#2" to="40633856#1"/>
    <trip id="veh4" type="veh_passenger" depart="49.15" departLane="best" departSpeed="max" from="40633857#0" to="40633856#5"/>
    <trip id="veh5" type="veh_passenger" depart="61.44" departLane="best" from="-497108257#0" to="40633856#6"/>
    <trip id="veh6" type="veh_passenger" depart="73.72" departLane="best" from="497108255#2" to="-28104670#1"/>
    <trip id="veh7" type="veh_passenger" depart="86.01" departLane="best" from="497108255#1" to="40633861#1"/>
    <trip id="veh8" type="veh_passenger" depart="98.30" departLane="best" departSpeed="max" from="173153089" to="-40633861#1"/>
    <trip id="veh9" type="veh_passenger" depart="110.59" departLane="best" from="799734781#1" to="173153088#1"/>
    <trip id="veh10" type="veh_passenger" depart="122.87" departLane="best" from="-309592674" to="-40633853"/>
    <trip id="veh11" type="veh_passenger" depart="135.16" departLane="best" from="497108256#1" to="40633856#6"/>
    <trip id="veh12" type="veh_passenger" depart="147.45" departLane="best" from="497108255#1" to="462900086#4"/>
    <trip id="veh13" type="veh_passenger" depart="159.74" departLane="best" from="28104670#0" to="40633856#5"/>
    <trip id="veh14" type="veh_passenger" depart="172.02" departLane="best" from="497108255#5" to="40633856#6"/>
    <trip id="veh15" type="veh_passenger" depart="184.31" departLane="best" from="497108257#1" to="40633856#6"/>
    <trip id="veh16" type="veh_passenger" depart="196.60" departLane="best" from="40633857#10" to="-299649296#1"/>
    <trip id="veh17" type="veh_passenger" depart="208.89" departLane="best" departSpeed="max" from="40633857#0" to="40633856#6"/>
    <trip id="veh18" type="veh_passenger" depart="221.17" departLane="best" from="-497108255#1" to="462900086#4"/>
    <trip id="veh19" type="veh_passenger" depart="233.46" departLane="best" from="92194642#2-AddedOffRampEdge" to="40633857#10"/>
    <trip id="veh20" type="veh_passenger" depart="245.75" departLane="best" from="497108256#0" to="462900086#4"/>
    <trip id="veh21" type="veh_passenger" depart="258.04" departLane="best" from="-497108257#1" to="-28104740#0"/>
    <trip id="veh22" type="veh_passenger" depart="270.32" departLane="best" departSpeed="max" from="173153089" to="-799734781#0"/>
    <trip id="veh23" type="veh_passenger" depart="282.61" departLane="best" from="-497108256#1" to="799788865"/>
    <trip id="veh24" type="veh_passenger" depart="294.90" departLane="best" from="55675975#0" to="173153088#1"/>
    <trip id="veh25" type="veh_passenger" depart="307.19" departLane="best" departSpeed="max" from="40633857#0" to="28104740#1"/>
    <trip id="veh27" type="veh_passenger" depart="331.76" departLane="best" from="40633855#2" to="-799734780#1"/>
    <trip id="veh28" type="veh_passenger" depart="344.05" departLane="best" from="28104729#1" to="-497108257#1"/>
    <trip id="veh29" type="veh_passenger" depart="356.34" departLane="best" from="-40633854#0" to="40633856#6"/>
    <trip id="veh31" type="veh_passenger" depart="380.91" departLane="best" from="-299649308#1" to="28104729#0"/>
    <trip id="veh33" type="veh_passenger" depart="405.49" departLane="best" from="-28104670#1" to="462900086#3"/>
    <trip id="veh34" type="veh_passenger" depart="417.77" departLane="best" departSpeed="max" from="40633857#0" to="40633856#4"/>
    <trip id="veh35" type="veh_passenger" depart="430.06" departLane="best" from="-799734780#0" to="40633857#10"/>
    <trip id="veh36" type="veh_passenger" depart="442.35" departLane="best" from="-40633854#1" to="299649308#4"/>
    <trip id="veh37" type="veh_passenger" depart="454.64" departLane="best" from="299649308#4" to="799788865"/>
    <trip id="veh38" type="veh_passenger" depart="466.92" departLane="best" departSpeed="max" from="328774394" to="-497108255#4"/>
    <trip id="veh39" type="veh_passenger" depart="479.21" departLane="best" from="-28104670#0" to="173153088#1"/>
    <trip id="veh40" type="veh_passenger" depart="491.50" departLane="best" from="-28104729#0" to="799734781#1"/>
    <trip id="veh42" type="veh_passenger" depart="516.07" departLane="best" from="55675975#0" to="799788865"/>
    <trip id="veh43" type="veh_passenger" depart="528.36" departLane="best" from="-299649308#2" to="462900086#4"/>
    <trip id="veh44" type="veh_passenger" depart="540.65" departLane="best" departSpeed="max" from="328774394" to="40633856#5"/>
    <trip id="veh46" type="veh_passenger" depart="565.22" departLane="best" from="40633854#0" to="462900086#4"/>
    <trip id="veh47" type="veh_passenger" depart="577.51" departLane="best" from="92194642#3" to="40633857#10"/>
    <trip id="veh48" type="veh_passenger" depart="589.80" departLane="best" from="299649308#1" to="40633856#2"/>
    <trip id="veh50" type="veh_passenger" depart="614.37" departLane="best" departSpeed="max" from="173153089" to="40633856#6"/>
    <trip id="veh52" type="veh_passenger" depart="638.95" departLane="best" from="-497108257#1" to="780934977#1"/>
    <trip id="veh53" type="veh_passenger" depart="651.24" departLane="best" from="-497108256#2" to="-40633860#0"/>
    <trip id="veh54" type="veh_passenger" depart="663.52" departLane="best" from="-309592674" to="299649308#3"/>
    <trip id="veh55" type="veh_passenger" depart="675.81" departLane="best" from="299649296#1" to="40633853"/>
    <trip id="veh56" type="veh_passenger" depart="688.10" departLane="best" from="28104729#1" to="173153088#1"/>
    <trip id="veh58" type="veh_passenger" depart="712.67" departLane="best" from="40633855#0" to="-299649308#0"/>
    <trip id="veh59" type="veh_passenger" depart="724.96" departLane="best" departSpeed="max" from="328774394" to="-497108257#0"/>
    <trip id="veh60" type="veh_passenger" depart="737.25" departLane="best" from="28104729#1" to="-299649308#1"/>
    <trip id="veh61" type="veh_passenger" depart="749.54" departLane="best" from="28104670#0" to="92194642#2-AddedOffRampEdge"/>
    <trip id="veh63" type="veh_passenger" depart="774.11" departLane="best" from="92194634#0" to="40633856#6"/>
    <trip id="veh64" type="veh_passenger" depart="786.40" departLane="best" from="40633854#0" to="462900086#4"/>
    <trip id="veh65" type="veh_passenger" depart="798.69" departLane="best" from="-299649308#0" to="40633856#6"/>
    <trip id="veh68" type="veh_passenger" depart="835.55" departLane="best" from="40633856#3" to="40633856#6"/>
    <trip id="veh69" type="veh_passenger" depart="847.84" departLane="best" from="299649296#0" to="40633856#6"/>
    <trip id="veh70" type="veh_passenger" depart="860.12" departLane="best" departSpeed="max" from="328774394" to="799734783"/>
    <trip id="veh71" type="veh_passenger" depart="872.41" departLane="best" departSpeed="max" from="40633857#0" to="173153088#0"/>
    <trip id="veh72" type="veh_passenger" depart="884.70" departLane="best" departSpeed="max" from="173153089" to="462900086#4"/>
    <trip id="veh76" type="veh_passenger" depart="933.85" departLane="best" departSpeed="max" from="173153089" to="-40633863"/>
    <trip id="veh77" type="veh_passenger" depart="946.14" departLane="best" from="497108255#6" to="40633863"/>
    <trip id="veh78" type="veh_passenger" depart="958.42" departLane="best" departSpeed="max" from="40633857#0" to="-28104670#1"/>
    <trip id="veh79" type="veh_passenger" depart="970.71" departLane="best" departSpeed="max" from="40633857#0" to="799788865"/>
    <trip id="veh80" type="veh_passenger" depart="983.00" departLane="best" from="-799734780#1" to="40633856#6"/>
    <trip id="veh81" type="veh_passenger" depart="995.29" departLane="best" from="40633857#11" to="-497108256#1"/>
    <trip id="veh83" type="veh_passenger" depart="1019.86" departLane="best" departSpeed="max" from="328774394" to="780934977#1"/>
    <trip id="veh84" type="veh_passenger" depart="1032.15" departLane="best" from="-28104670#0" to="462900086#4"/>
    <trip id="veh86" type="veh_passenger" depart="1056.72" departLane="best" from="299649296#1" to="-28104670#1"/>
    <trip id="veh87" type="veh_passenger" depart="1069.01" departLane="best" from="-299649308#4" to="691997521#3"/>
    <trip id="veh88" type="veh_passenger" depart="1081.30" departLane="best" from="691997521#3" to="40633856#5"/>
    <trip id="veh89" type="veh_passenger" depart="1093.59" departLane="best" from="497108255#6" to="40633856#6"/>
    <trip id="veh91" type="veh_passenger" depart="1118.16" departLane="best" from="691997521#0" to="-497108256#2"/>
    <trip id="veh92" type="veh_passenger" depart="1130.45" departLane="best" from="28104740#0" to="40633856#6"/>
    <trip id="veh93" type="veh_passenger" depart="1142.74" departLane="best" from="-40633861#0" to="799734781#1"/>
    <trip id="veh94" type="veh_passenger" depart="1155.02" departLane="best" from="-28104729#1" to="462900086#4"/>
    <trip id="veh98" type="veh_passenger" depart="1204.17" departLane="best" from="92194642#2" to="40633856#4"/>
    <trip id="veh99" type="veh_passenger" depart="1216.46" departLane="best" from="799734780#0" to="-40633855#0"/>
    <trip id="veh100" type="veh_passenger" depart="1228.75" departLane="best" from="-40633854#0" to="299649308#4"/>
    <trip id="veh101" type="veh_passenger" depart="1241.04" departLane="best" from="40633857#12" to="173153088#1"/>
    <trip id="veh102" type="veh_passenger" depart="1253.32" departLane="best" from="28104670#1" to="40633856#6"/>
    <trip id="veh103" type="veh_passenger" depart="1265.61" departLane="best" from="-28104670#0" to="799734781#0"/>
    <trip id="veh104" type="veh_passenger" depart="1277.90" departLane="best" departSpeed="max" from="173153089" to="-299649308#3"/>
    <trip id="veh105" type="veh_passenger" depart="1290.19" departLane="best" departSpeed="max" from="40633857#0" to="173153088#1"/>
    <trip id="veh106" type="veh_passenger" depart="1302.47" departLane="best" from="40633857#11" to="173153088#1"/>
    <trip id="veh107" type="veh_passenger" depart="1314.76" departLane="best" from="-40633855#2" to="299649308#1"/>
    <trip id="veh108" type="veh_passenger" depart="1327.05" departLane="best" from="799734780#0" to="40633860#0"/>
    <trip id="veh109" type="veh_passenger" depart="1339.34" departLane="best" from="691997521#3" to="40633856#6"/>
    <trip id="veh110" type="veh_passenger" depart="1351.62" departLane="best" from="173153088#0" to="40633856#5"/>
    <trip id="veh111" type="veh_passenger" depart="1363.91" departLane="best" from="299649308#0" to="40633856#6"/>
    <trip id="veh114" type="veh_passenger" depart="1400.77" departLane="best" from="497108255#3" to="462900086#4"/>
    <trip id="veh116" type="veh_passenger" depart="1425.35" departLane="best" from="-497108255#6" to="-28104729#1"/>
    <trip id="veh117" type="veh_passenger" depart="1437.63" departLane="best" from="-497108255#5" to="40633861#1"/>
    <trip id="veh119" type="veh_passenger" depart="1462.21" departLane="best" departSpeed="max" from="40633857#0" to="-28104670#0"/>
    <trip id="veh120" type="veh_passenger" depart="1474.50" departLane="best" from="40633860#2" to="462900086#4"/>
    <trip id="veh121" type="veh_passenger" depart="1486.78" departLane="best" from="-40633854#0" to="299649308#2"/>
    <trip id="veh122" type="veh_passenger" depart="1499.07" departLane="best" from="-497108255#2" to="799788865"/>
    <trip id="veh123" type="veh_passenger" depart="1511.36" departLane="best" departSpeed="max" from="328774394" to="-299649308#0"/>
    <trip id="veh125" type="veh_passenger" depart="1535.93" departLane="best" departSpeed="max" from="40633857#0" to="92194642#2-AddedOffRampEdge"/>
    <trip id="veh126" type="veh_passenger" depart="1548.22" departLane="best" from="40633856#3" to="799788865"/>
    <trip id="veh127" type="veh_passenger" depart="1560.51" departLane="best" from="691997520" to="40633856#6"/>
    <trip id="veh128" type="veh_passenger" depart="1572.80" departLane="best" from="497108255#5" to="40633856#5"/>
    <trip id="veh129" type="veh_passenger" depart="1585.08" departLane="best" from="691997521#0" to="462900086#4"/>
    <trip id="veh130" type="veh_passenger" depart="1597.37" departLane="best" departSpeed="max" from="328774394" to="-799734780#0"/>
    <trip id="veh133" type="veh_passenger" depart="1634.23" departLane="best" from="-299649308#4" to="173153088#0"/>
    <trip id="veh134" type="veh_passenger" depart="1646.52" departLane="best" from="-799734780#1" to="173153088#1"/>
    <trip id="veh135" type="veh_passenger" depart="1658.81" departLane="best" from="40633857#10" to="-299649308#2"/>
    <trip id="veh136" type="veh_passenger" depart="1671.10" departLane="best" from="28104740#0" to="40633856#4"/>
    <trip id="veh137" type="veh_passenger" depart="1683.38" departLane="best" from="28104740#1" to="-497108256#2"/>
    <trip id="veh138" type="veh_passenger" depart="1695.67" departLane="best" from="40633856#2" to="40633861#1"/>
    <trip id="veh139" type="veh_passenger" depart="1707.96" departLane="best" from="497108257#0" to="462900086#4"/>
    <trip id="veh140" type="veh_passenger" depart="1720.25" departLane="best" from="28104670#0" to="-28104670#1"/>
    <trip id="veh141" type="veh_passenger" depart="1732.53" departLane="best" departSpeed="max" from="173153089" to="462900086#4"/>
    <trip id="veh142" type="veh_passenger" depart="1744.82" departLane="best" from="497108256#2" to="799788865"/>
    <trip id="veh143" type="veh_passenger" depart="1757.11" departLane="best" from="299649296#0" to="462900086#4"/>
    <trip id="veh144" type="veh_passenger" depart="1769.40" departLane="best" from="40633854#1" to="40633856#6"/>
    <trip id="veh145" type="veh_passenger" depart="1781.68" departLane="best" from="299649308#1" to="-28104740#0"/>
    <trip id="veh146" type="veh_passenger" depart="1793.97" departLane="best" departSpeed="max" from="173153089" to="40633860#1"/>
    <trip id="veh147" type="veh_passenger" depart="1806.26" departLane="best" from="28104729#1" to="-497108255#1"/>
    <trip id="veh148" type="veh_passenger" depart="1818.55" departLane="best" from="309592669" to="-40633855#2"/>
    <trip id="veh149" type="veh_passenger" depart="1830.83" departLane="best" from="-299649296#1" to="28104729#0"/>
    <trip id="veh150" type="veh_passenger" depart="1843.12" departLane="best" from="-497108256#1" to="173153088#1"/>
    <trip id="veh151" type="veh_passenger" depart="1855.41" departLane="best" from="40633861#0" to="497108256#2"/>
    <trip id="veh152" type="veh_passenger" depart="1867.70" departLane="best" from="92194642#3" to="173153088#1"/>
    <trip id="veh153" type="veh_passenger" depart="1879.98" departLane="best" departSpeed="max" from="40633857#0" to="462900086#4"/>
    <trip id="veh154" type="veh_passenger" depart="1892.27" departLane="best" departSpeed="max" from="40633857#0" to="462900086#4"/>
    <trip id="veh155" type="veh_passenger" depart="1904.56" departLane="best" from="40633855#2" to="-497108257#1"/>
    <trip id="veh156" type="veh_passenger" depart="1916.85" departLane="best" from="40633857#10" to="462900086#4"/>
    <trip id="veh157" type="veh_passenger" depart="1929.13" departLane="best" from="-497108255#1" to="40633856#6"/>
    <trip id="veh158" type="veh_passenger" depart="1941.42" departLane="best" from="497108255#3" to="799788865"/>
    <trip id="veh159" type="veh_passenger" depart="1953.71" departLane="best" from="799734781#1" to="28104740#1"/>
    <trip id="veh160" type="veh_passenger" depart="1966.00" departLane="best" from="40633857#11" to="-299649308#4"/>
    <trip id="veh161" type="veh_passenger" depart="1978.28" departLane="best" departSpeed="max" from="40633857#0" to="40633856#6"/>
    <trip id="veh162" type="veh_passenger" depart="1990.57" departLane="best" from="-40633853" to="462900086#4"/>
    <trip id="veh163" type="veh_passenger" depart="2002.86" departLane="best" from="497108256#2" to="40633856#6"/>
    <trip id="veh165" type="veh_passenger" depart="2027.43" departLane="best" from="299649308#0" to="28104670#1"/>
    <trip id="veh166" type="veh_passenger" depart="2039.72" departLane="best" departSpeed="max" from="328774394" to="173153088#1"/>
    <trip id="veh167" type="veh_passenger" depart="2052.01" departLane="best" from="-40633854#0" to="799788865"/>
    <trip id="veh169" type="veh_passenger" depart="2076.58" departLane="best" from="40633857#10" to="299649308#4"/>
    <trip id="veh170" type="veh_passenger" depart="2088.87" departLane="best" from="40633857#12" to="799788865"/>
    <trip id="veh171" type="veh_passenger" depart="2101.16" departLane="best" from="299649308#1" to="462900086#4"/>
    <trip id="veh172" type="veh_passenger" depart="2113.45" departLane="best" from="497108255#5" to="-309592669"/>
    <trip id="veh174" type="veh_passenger" depart="2138.02" departLane="best" from="309592669" to="40633856#6"/>
    <trip id="veh175" type="veh_passenger" depart="2150.31" departLane="best" from="28104670#0" to="-28104740#0"/>
    <trip id="veh176" type="veh_passenger" depart="2162.60" departLane="best" departSpeed="max" from="173153089" to="691997521#3"/>
    <trip id="veh177" type="veh_passenger" depart="2174.88" departLane="best" from="40633857#10" to="-799734781#1"/>
    <trip id="veh178" type="veh_passenger" depart="2187.17" departLane="best" departSpeed="max" from="40633857#0" to="40633857#10"/>
    <trip id="veh179" type="veh_passenger" depart="2199.46" departLane="best" departSpeed="max" from="328774394" to="497108255#2"/>
    <trip id="veh180" type="veh_passenger" depart="2211.75" departLane="best" from="-309592674" to="-497108257#1"/>
    <trip id="veh181" type="veh_passenger" depart="2224.03" departLane="best" departSpeed="max" from="40633857#0" to="173153088#1"/>
    <trip id="veh182" type="veh_passenger" depart="2236.32" departLane="best" departSpeed="max" from="328774394" to="299649308#2"/>
    <trip id="veh183" type="veh_passenger" depart="2248.61" departLane="best" from="40633860#2" to="173153088#1"/>
    <trip id="veh184" type="veh_passenger" depart="2260.90" departLane="best" from="40633857#10" to="-799734781#0"/>
    <trip id="veh185" type="veh_passenger" depart="2273.18" departLane="best" from="40633853" to="462900086#4"/>
    <trip id="veh186" type="veh_passenger" depart="2285.47" departLane="best" departSpeed="max" from="328774394" to="462900086#3"/>
    <trip id="veh187" type="veh_passenger" depart="2297.76" departLane="best" from="92194642#0" to="40633856#3"/>
    <trip id="veh188" type="veh_passenger" depart="2310.05" departLane="best" from="-799734781#0" to="-40633854#0"/>
    <trip id="veh190" type="veh_passenger" depart="2334.62" departLane="best" from="-497108255#3" to="-28104670#2"/>
    <trip id="veh191" type="veh_passenger" depart="2346.91" departLane="best" from="92194642#0" to="40633856#5"/>
    <trip id="veh192" type="veh_passenger" depart="2359.20" departLane="best" departSpeed="max" from="40633857#0" to="-40633855#2"/>
    <trip id="veh193" type="veh_passenger" depart="2371.48" departLane="best" from="55675975#0" to="40633856#6"/>
    <trip id="veh194" type="veh_passenger" depart="2383.77" departLane="best" from="799734780#0" to="40633854#0"/>
    <trip id="veh196" type="veh_passenger" depart="2408.35" departLane="best" from="-299649308#0" to="-40633861#0"/>
    <trip id="veh197" type="veh_passenger" depart="2420.63" departLane="best" from="40633863" to="40633856#6"/>
    <trip id="veh199" type="veh_passenger" depart="2445.21" departLane="best" departSpeed="max" from="328774394" to="309592674"/>
    <trip id="veh201" type="veh_passenger" depart="2469.78" departLane="best" from="92194642#2-AddedOffRampEdge" to="173153088#1"/>
    <trip id="veh202" type="veh_passenger" depart="2482.07" departLane="best" from="40633856#5" to="40633856#6"/>
    <trip id="veh203" type="veh_passenger" depart="2494.36" departLane="best" departSpeed="max" from="40633857#0" to="-40633863"/>
    <trip id="veh204" type="veh_passenger" depart="2506.65" departLane="best" from="-28104670#0" to="309592674"/>
    <trip id="veh206" type="veh_passenger" depart="2531.22" departLane="best" from="40633857#10" to="309592674"/>
    <trip id="veh207" type="veh_passenger" depart="2543.51" departLane="best" departSpeed="max" from="40633857#0" to="799734781#0"/>
    <trip id="veh209" type="veh_passenger" depart="2568.08" departLane="best" departSpeed="max" from="40633857#0" to="799734783"/>
    <trip id="veh210" type="veh_passenger" depart="2580.37" departLane="best" from="299649296#1" to="40633856#5"/>
    <trip id="veh212" type="veh_passenger" depart="2604.95" departLane="best" from="-40633863" to="173153088#1"/>
    <trip id="veh213" type="veh_passenger" depart="2617.23" departLane="best" departSpeed="max" from="40633857#0" to="40633861#1"/>
    <trip id="veh214" type="veh_passenger" depart="2629.52" departLane="best" departSpeed="max" from="328774394" to="-309584107"/>
    <trip id="veh215" type="veh_passenger" depart="2641.81" departLane="best" from="-28104740#1" to="299649308#3"/>
    <trip id="veh217" type="veh_passenger" depart="2666.38" departLane="best" from="-309592669" to="799788865"/>
    <trip id="veh218" type="veh_passenger" depart="2678.67" departLane="best" from="497108255#6" to="40633856#6"/>
    <trip id="veh219" type="veh_passenger" depart="2690.96" departLane="best" departSpeed="max" from="40633857#0" to="-799734781#0"/>
    <trip id="veh220" type="veh_passenger" depart="2703.25" departLane="best" from="-28104740#1" to="462900086#4"/>
    <trip id="veh222" type="veh_passenger" depart="2727.82" departLane="best" departSpeed="max" from="328774394" to="-309592674"/>
    <trip id="veh224" type="veh_passenger" depart="2752.40" departLane="best" departSpeed="max" from="173153089" to="40633861#0"/>
    <trip id="veh225" type="veh_passenger" depart="2764.68" departLane="best" from="-799734781#1" to="799788865"/>
    <trip id="veh226" type="veh_passenger" depart="2776.97" departLane="best" from="497108255#2" to="40633856#5"/>
    <trip id="veh227" type="veh_passenger" depart="2789.26" departLane="best" from="299649308#4" to="173153088#1"/>
    <trip id="veh228" type="veh_passenger" depart="2801.54" departLane="best" from="40633854#0" to="299649308#0"/>
    <trip id="veh229" type="veh_passenger" depart="2813.83" departLane="best" from="-497108255#4" to="28104670#0"/>
    <trip id="veh230" type="veh_passenger" depart="2826.12" departLane="best" from="40633861#0" to="40633856#6"/>
    <trip id="veh231" type="veh_passenger" depart="2838.41" departLane="best" from="40633861#1" to="-497108256#1"/>
    <trip id="veh232" type="veh_passenger" depart="2850.69" departLane="best" from="40633855#0" to="799734781#0"/>
    <trip id="veh233" type="veh_passenger" depart="2862.98" departLane="best" from="299649308#1" to="40633861#1"/>
    <trip id="veh234" type="veh_passenger" depart="2875.27" departLane="best" from="-40633855#1" to="92194642#0"/>
    <trip id="veh235" type="veh_passenger" depart="2887.56" departLane="best" from="40633855#0" to="-309592674"/>
    <trip id="veh237" type="veh_passenger" depart="2912.13" departLane="best" from="497108255#5" to="40633855#2"/>
    <trip id="veh240" type="veh_passenger" depart="2948.99" departLane="best" from="28104740#1" to="799734783"/>
    <trip id="veh241" type="veh_passenger" depart="2961.28" departLane="best" departSpeed="max" from="328774394" to="497108256#0"/>
    <trip id="veh242" type="veh_passenger" depart="2973.57" departLane="best" departSpeed="max" from="328774394" to="-40633861#0"/>
    <trip id="veh243" type="veh_passenger" depart="2985.86" departLane="best" from="40633854#0" to="173153088#1"/>
    <trip id="veh244" type="veh_passenger" depart="2998.14" departLane="best" from="299649308#4" to="173153088#1"/>
    <trip id="veh245" type="veh_passenger" depart="3010.43" departLane="best" from="-497108255#4" to="40633861#1"/>
    <trip id="veh246" type="veh_passenger" depart="3022.72" departLane="best" departSpeed="max" from="40633857#0" to="497108256#0"/>
    <trip id="veh247" type="veh_passenger" depart="3035.01" departLane="best" from="92194642#2" to="40633855#2"/>
    <trip id="veh248" type="veh_passenger" depart="3047.29" departLane="best" departSpeed="max" from="328774394" to="328774394"/>
    <trip id="veh249" type="veh_passenger" depart="3059.58" departLane="best" from="40633857#11" to="299649296#1"/>
    <trip id="veh250" type="veh_passenger" depart="3071.87" departLane="best" departSpeed="max" from="40633857#0" to="-40633861#1"/>
    <trip id="veh251" type="veh_passenger" depart="3084.16" departLane="best" departSpeed="max" from="173153089" to="40633861#0"/>
    <trip id="veh254" type="veh_passenger" depart="3121.02" departLane="best" from="28104670#0" to="173153088#1"/>
    <trip id="veh255" type="veh_passenger" depart="3133.31" departLane="best" from="40633857#11" to="462900086#4"/>
    <trip id="veh257" type="veh_passenger" depart="3157.88" departLane="best" from="40633860#2" to="299649308#4"/>
    <trip id="veh259" type="veh_passenger" depart="3182.46" departLane="best" departSpeed="max" from="40633857#0" to="780934977#1"/>
    <trip id="veh260" type="veh_passenger" depart="3194.74" departLane="best" from="-799734783" to="28104670#2"/>
    <trip id="veh261" type="veh_passenger" depart="3207.03" departLane="best" from="-497108255#1" to="-309584107"/>
    <trip id="veh262" type="veh_passenger" depart="3219.32" departLane="best" from="55675975#0" to="40633856#6"/>
    <trip id="veh263" type="veh_passenger" depart="3231.61" departLane="best" from="-28104670#1" to="497108255#4"/>
    <trip id="veh264" type="veh_passenger" depart="3243.89" departLane="best" from="-40633861#1" to="309584107"/>
    <trip id="veh265" type="veh_passenger" depart="3256.18" departLane="best" departSpeed="max" from="173153089" to="40633856#6"/>
    <trip id="veh268" type="veh_passenger" depart="3293.04" departLane="best" departSpeed="max" from="328774394" to="-772140282"/>
    <trip id="veh269" type="veh_passenger" depart="3305.33" departLane="best" from="40633856#1" to="40633856#6"/>
    <trip id="veh270" type="veh_passenger" depart="3317.62" departLane="best" from="-799734780#1" to="40633856#5-AddedOffRampEdge"/>
    <trip id="veh271" type="veh_passenger" depart="3329.91" departLane="best" departSpeed="max" from="40633857#0" to="462900086#4"/>
    <trip id="veh272" type="veh_passenger" depart="3342.19" departLane="best" from="-299649296#1" to="40633856#6"/>
    <trip id="veh273" type="veh_passenger" depart="3354.48" departLane="best" departSpeed="max" from="328774394" to="780934977#1"/>
    <trip id="veh274" type="veh_passenger" depart="3366.77" departLane="best" from="40633856#4" to="173153088#1"/>
    <trip id="veh275" type="veh_passenger" depart="3379.06" departLane="best" from="40633856#5-AddedOffRampEdge" to="40633856#6"/>
    <trip id="veh276" type="veh_passenger" depart="3391.34" departLane="best" departSpeed="max" from="40633857#0" to="462900086#3"/>
    <trip id="veh277" type="veh_passenger" depart="3403.63" departLane="best" departSpeed="max" from="40633857#0" to="497108257#0"/>
    <trip id="veh279" type="veh_passenger" depart="3428.21" departLane="best" departSpeed="max" from="40633857#0" to="173153088#1"/>
    <trip id="veh280" type="veh_passenger" depart="3440.49" departLane="best" from="299649308#2" to="40633856#6"/>
    <trip id="veh281" type="veh_passenger" depart="3452.78" departLane="best" from="173153088#0" to="462900086#4"/>
    <trip id="veh282" type="veh_passenger" depart="3465.07" departLane="best" from="-497108255#2" to="-40633860#0"/>
    <trip id="veh283" type="veh_passenger" depart="3477.36" departLane="best" departSpeed="max" from="328774394" to="799734780#0"/>
    <trip id="veh284" type="veh_passenger" depart="3489.64" departLane="best" from="497108255#4" to="40633854#1"/>
    <trip id="veh285" type="veh_passenger" depart="3501.93" departLane="best" from="497108255#1" to="462900086#4"/>
    <trip id="veh286" type="veh_passenger" depart="3514.22" departLane="best" from="799734783" to="-40633860#2"/>
    <trip id="veh288" type="veh_passenger" depart="3538.79" departLane="best" from="299649308#4" to="40633860#0"/>
    <trip id="veh289" type="veh_passenger" depart="3551.08" departLane="best" departSpeed="max" from="40633857#0" to="40633856#6"/>
    <trip id="veh290" type="veh_passenger" depart="3563.37" departLane="best" from="497108255#4" to="799788865"/>
    <trip id="veh291" type="veh_passenger" depart="3575.66" departLane="best" from="40633855#2" to="799734780#0"/>
</routes>
