<?xml version="1.0" encoding="UTF-8"?>

<!-- generated on Sun Mar 21 21:08:32 2021 by Eclipse SUMO netconvert Version 1.8.0
<configuration xmlns:xsi="http://www.w3.org/2001/XMLSchema-instance" xsi:noNamespaceSchemaLocation="http://sumo.dlr.de/xsd/netconvertConfiguration.xsd">

    <input>
        <type-files value="/usr/local/opt/sumo/share/sumo/data/typemap/osmNetconvert.typ.xml"/>
        <osm-files value="osm_bbox.osm.xml"/>
    </input>

    <output>
        <output-file value="osm.net.xml"/>
        <output.street-names value="true"/>
        <output.original-names value="true"/>
    </output>

    <projection>
        <proj.utm value="true"/>
    </projection>

    <processing>
        <geometry.remove value="true"/>
        <roundabouts.guess value="true"/>
        <lefthand value="true"/>
    </processing>

    <tls_building>
        <tls.discard-simple value="true"/>
        <tls.join value="true"/>
        <tls.guess-signals value="true"/>
        <tls.default-type value="actuated"/>
    </tls_building>

    <ramp_guessing>
        <ramps.guess value="true"/>
    </ramp_guessing>

    <edge_removal>
        <keep-edges.by-vclass value="passenger"/>
    </edge_removal>

    <junctions>
        <junctions.join value="true"/>
        <junctions.corner-detail value="5"/>
    </junctions>

    <report>
        <verbose value="true"/>
        <aggregate-warnings value="5"/>
    </report>

</configuration>
-->

<net version="1.6" junctionCornerDetail="5" lefthand="true" limitTurnSpeed="5.50" xmlns:xsi="http://www.w3.org/2001/XMLSchema-instance" xsi:noNamespaceSchemaLocation="http://sumo.dlr.de/xsd/net_file.xsd">

    <location netOffset="-778898.02,-1428200.42" convBoundary="0.00,-0.00,3241.08,1866.67" origBoundary="77.570237,12.906528,77.600092,12.923366" projParameter="+proj=utm +zone=43 +ellps=WGS84 +datum=WGS84 +units=m +no_defs"/>

    <type id="highway.bridleway" priority="1" numLanes="1" speed="2.78" allow="pedestrian" oneway="1" width="2.00"/>
    <type id="highway.bus_guideway" priority="1" numLanes="1" speed="27.78" allow="bus" oneway="1"/>
    <type id="highway.cycleway" priority="1" numLanes="1" speed="8.33" allow="bicycle" oneway="0" width="1.00"/>
    <type id="highway.footway" priority="1" numLanes="1" speed="2.78" allow="pedestrian" oneway="1" width="2.00"/>
    <type id="highway.ford" priority="1" numLanes="1" speed="2.78" allow="army" oneway="0"/>
    <type id="highway.living_street" priority="2" numLanes="1" speed="2.78" disallow="tram rail_urban rail rail_electric rail_fast ship" oneway="0"/>
    <type id="highway.motorway" priority="14" numLanes="2" speed="39.44" allow="private emergency authority army vip passenger hov taxi bus coach delivery truck trailer motorcycle evehicle custom1 custom2" oneway="1"/>
    <type id="highway.motorway_link" priority="9" numLanes="1" speed="22.22" allow="private emergency authority army vip passenger hov taxi bus coach delivery truck trailer motorcycle evehicle custom1 custom2" oneway="1"/>
    <type id="highway.path" priority="1" numLanes="1" speed="2.78" allow="pedestrian bicycle" oneway="0" width="2.00"/>
    <type id="highway.pedestrian" priority="1" numLanes="1" speed="2.78" allow="pedestrian" oneway="1" width="2.00"/>
    <type id="highway.primary" priority="12" numLanes="2" speed="27.78" disallow="tram rail_urban rail rail_electric rail_fast ship" oneway="0"/>
    <type id="highway.primary_link" priority="7" numLanes="1" speed="22.22" disallow="tram rail_urban rail rail_electric rail_fast ship" oneway="0"/>
    <type id="highway.raceway" priority="15" numLanes="2" speed="83.33" allow="vip" oneway="0"/>
    <type id="highway.residential" priority="3" numLanes="1" speed="13.89" disallow="tram rail_urban rail rail_electric rail_fast ship" oneway="0"/>
    <type id="highway.secondary" priority="11" numLanes="1" speed="27.78" disallow="tram rail_urban rail rail_electric rail_fast ship" oneway="0"/>
    <type id="highway.secondary_link" priority="6" numLanes="1" speed="22.22" disallow="tram rail_urban rail rail_electric rail_fast ship" oneway="0"/>
    <type id="highway.service" priority="1" numLanes="1" speed="5.56" allow="pedestrian delivery bicycle" oneway="0"/>
    <type id="highway.stairs" priority="1" numLanes="1" speed="1.39" allow="pedestrian" oneway="1" width="2.00"/>
    <type id="highway.step" priority="1" numLanes="1" speed="1.39" allow="pedestrian" oneway="1" width="2.00"/>
    <type id="highway.steps" priority="1" numLanes="1" speed="1.39" allow="pedestrian" oneway="1" width="2.00"/>
    <type id="highway.tertiary" priority="10" numLanes="1" speed="22.22" disallow="tram rail_urban rail rail_electric rail_fast ship" oneway="0"/>
    <type id="highway.tertiary_link" priority="5" numLanes="1" speed="22.22" disallow="tram rail_urban rail rail_electric rail_fast ship" oneway="0"/>
    <type id="highway.track" priority="1" numLanes="1" speed="5.56" allow="pedestrian motorcycle moped bicycle" oneway="0"/>
    <type id="highway.trunk" priority="13" numLanes="2" speed="27.78" disallow="pedestrian bicycle tram rail_urban rail rail_electric rail_fast ship" oneway="0"/>
    <type id="highway.trunk_link" priority="8" numLanes="1" speed="22.22" disallow="pedestrian bicycle tram rail_urban rail rail_electric rail_fast ship" oneway="0"/>
    <type id="highway.unclassified" priority="4" numLanes="1" speed="13.89" disallow="tram rail_urban rail rail_electric rail_fast ship" oneway="0"/>
    <type id="highway.unsurfaced" priority="1" numLanes="1" speed="8.33" disallow="tram rail_urban rail rail_electric rail_fast ship" oneway="0"/>
    <type id="railway.highspeed" priority="21" numLanes="1" speed="69.44" allow="rail_fast" oneway="1"/>
    <type id="railway.light_rail" priority="19" numLanes="1" speed="27.78" allow="rail_urban" oneway="1"/>
    <type id="railway.preserved" priority="16" numLanes="1" speed="27.78" allow="rail" oneway="1"/>
    <type id="railway.rail" priority="20" numLanes="1" speed="44.44" allow="rail" oneway="1"/>
    <type id="railway.subway" priority="18" numLanes="1" speed="27.78" allow="rail_urban" oneway="1"/>
    <type id="railway.tram" priority="17" numLanes="1" speed="13.89" allow="tram" oneway="1"/>

    <edge id=":1070314216_0" function="internal">
        <lane id=":1070314216_0_0" index="0" disallow="pedestrian bicycle tram rail_urban rail rail_electric rail_fast ship" speed="27.78" length="3.59" shape="350.07,1169.20 349.81,1172.80"/>
        <lane id=":1070314216_0_1" index="1" disallow="pedestrian bicycle tram rail_urban rail rail_electric rail_fast ship" speed="27.78" length="3.59" shape="353.26,1169.46 353.00,1173.02"/>
    </edge>
    <edge id=":1070314216_2" function="internal">
        <lane id=":1070314216_2_0" index="0" disallow="tram rail_urban rail rail_electric rail_fast ship" speed="12.52" length="3.61" shape="346.16,1169.05 346.48,1170.07 346.64,1170.79 346.67,1171.52 346.61,1172.59"/>
    </edge>
    <edge id=":1070314225_0" function="internal">
        <lane id=":1070314225_0_0" index="0" disallow="tram rail_urban rail rail_electric rail_fast ship" speed="27.78" length="3.93" shape="326.14,1150.67 329.53,1152.66"/>
    </edge>
    <edge id=":1070314225_1" function="internal">
        <lane id=":1070314225_1_0" index="0" disallow="tram rail_urban rail rail_electric rail_fast ship" speed="8.49" length="3.88" shape="327.75,1147.91 328.75,1148.46 329.49,1148.75 330.29,1148.83 331.43,1148.80"/>
    </edge>
    <edge id=":1809759007_0" function="internal">
        <lane id=":1809759007_0_0" index="0" disallow="tram rail_urban rail rail_electric rail_fast ship" speed="3.65" length="4.67" shape="815.74,1115.55 816.20,1116.92 816.86,1117.51 817.74,1117.34 818.83,1116.38"/>
    </edge>
    <edge id=":248680029_0" function="internal">
        <lane id=":248680029_0_0" index="0" disallow="pedestrian bicycle tram rail_urban rail rail_electric rail_fast ship" speed="27.78" length="0.99" shape="362.34,1255.16 362.31,1255.02 362.30,1254.92 362.29,1254.82 362.30,1254.68"/>
        <lane id=":248680029_0_1" index="1" disallow="pedestrian bicycle tram rail_urban rail rail_electric rail_fast ship" speed="13.52" length="0.99" shape="359.23,1255.90 359.13,1255.48 359.09,1255.18 359.08,1254.88 359.11,1254.44"/>
    </edge>
    <edge id=":248839221_0" function="internal">
        <lane id=":248839221_0_0" index="0" disallow="tram rail_urban rail rail_electric rail_fast ship" speed="3.70" length="4.65" shape="54.64,1095.36 53.27,1095.79 52.67,1096.45 52.83,1097.33 53.76,1098.42"/>
    </edge>
    <edge id=":248839255_0" function="internal">
        <lane id=":248839255_0_0" index="0" disallow="tram rail_urban rail rail_electric rail_fast ship" speed="8.16" length="11.02" shape="840.58,1188.77 838.24,1189.44 835.81,1189.17 833.30,1187.97 830.71,1185.84"/>
    </edge>
    <edge id=":248839255_1" function="internal">
        <lane id=":248839255_1_0" index="0" disallow="tram rail_urban rail rail_electric rail_fast ship" speed="27.78" length="14.82" shape="840.58,1188.77 827.27,1195.24"/>
        <lane id=":248839255_1_1" index="1" disallow="tram rail_urban rail rail_electric rail_fast ship" speed="27.78" length="14.82" shape="842.00,1191.64 828.66,1198.13"/>
    </edge>
    <edge id=":248839255_3" function="internal">
        <lane id=":248839255_3_0" index="0" disallow="tram rail_urban rail rail_electric rail_fast ship" speed="5.89" length="9.11" shape="828.46,1188.12 830.06,1190.21 830.39,1192.10 829.46,1193.78 827.27,1195.24"/>
    </edge>
    <edge id=":248839255_4" function="internal">
        <lane id=":248839255_4_0" index="0" disallow="tram rail_urban rail rail_electric rail_fast ship" speed="3.65" length="4.67" shape="828.46,1188.12 829.87,1188.39 830.72,1188.10 831.00,1187.25 830.71,1185.84"/>
    </edge>
    <edge id=":3036816057_0" function="internal">
        <lane id=":3036816057_0_0" index="0" disallow="tram rail_urban rail rail_electric rail_fast ship" speed="3.65" length="4.67" shape="201.82,1284.27 202.98,1283.40 203.34,1282.58 202.89,1281.81 201.65,1281.07"/>
    </edge>
    <edge id=":3036816058_0" function="internal">
        <lane id=":3036816058_0_0" index="0" disallow="tram rail_urban rail rail_electric rail_fast ship" speed="13.89" length="14.45" shape="137.90,1284.42 123.47,1285.18"/>
    </edge>
    <edge id=":3036816058_1" function="internal">
        <lane id=":3036816058_1_0" index="0" disallow="tram rail_urban rail rail_electric rail_fast ship" speed="8.42" length="5.73" shape="137.90,1284.42 134.25,1285.17 132.59,1286.30"/>
    </edge>
    <edge id=":3036816058_2" function="internal">
        <lane id=":3036816058_2_0" index="0" disallow="tram rail_urban rail rail_electric rail_fast ship" speed="3.65" length="2.34" shape="137.90,1284.42 136.74,1285.28 136.38,1286.10"/>
    </edge>
    <edge id=":3036816058_9" function="internal">
        <lane id=":3036816058_9_0" index="0" disallow="tram rail_urban rail rail_electric rail_fast ship" speed="8.42" length="8.66" shape="132.59,1286.30 131.56,1287.00 129.82,1289.89 129.04,1293.86"/>
    </edge>
    <edge id=":3036816058_10" function="internal">
        <lane id=":3036816058_10_0" index="0" disallow="tram rail_urban rail rail_electric rail_fast ship" speed="3.65" length="2.34" shape="136.38,1286.10 136.82,1286.88 138.06,1287.62"/>
    </edge>
    <edge id=":3036816058_3" function="internal">
        <lane id=":3036816058_3_0" index="0" disallow="tram rail_urban rail rail_electric rail_fast ship" speed="7.01" length="9.67" shape="132.24,1294.07 132.76,1291.36 133.90,1289.37 135.67,1288.13 138.06,1287.62"/>
    </edge>
    <edge id=":3036816058_4" function="internal">
        <lane id=":3036816058_4_0" index="0" disallow="tram rail_urban rail rail_electric rail_fast ship" speed="7.80" length="14.67" shape="132.24,1294.07 131.93,1290.00 130.36,1287.16 127.54,1285.55 123.47,1285.18"/>
    </edge>
    <edge id=":3036816058_5" function="internal">
        <lane id=":3036816058_5_0" index="0" disallow="tram rail_urban rail rail_electric rail_fast ship" speed="3.65" length="4.67" shape="132.24,1294.07 131.52,1292.82 130.75,1292.37 129.92,1292.72 129.04,1293.86"/>
    </edge>
    <edge id=":3036816058_6" function="internal">
        <lane id=":3036816058_6_0" index="0" disallow="tram rail_urban rail rail_electric rail_fast ship" speed="6.26" length="9.04" shape="123.64,1288.37 126.15,1288.60 127.89,1289.59 128.85,1291.35 129.04,1293.86"/>
    </edge>
    <edge id=":3036816058_7" function="internal">
        <lane id=":3036816058_7_0" index="0" disallow="tram rail_urban rail rail_electric rail_fast ship" speed="13.89" length="14.45" shape="123.64,1288.37 138.06,1287.62"/>
    </edge>
    <edge id=":3036816058_8" function="internal">
        <lane id=":3036816058_8_0" index="0" disallow="tram rail_urban rail rail_electric rail_fast ship" speed="3.65" length="2.34" shape="123.64,1288.37 124.79,1287.51 125.15,1286.69"/>
    </edge>
    <edge id=":3036816058_11" function="internal">
        <lane id=":3036816058_11_0" index="0" disallow="tram rail_urban rail rail_electric rail_fast ship" speed="3.65" length="2.34" shape="125.15,1286.69 124.71,1285.91 123.47,1285.18"/>
    </edge>
    <edge id=":3036816059_0" function="internal">
        <lane id=":3036816059_0_0" index="0" disallow="tram rail_urban rail rail_electric rail_fast ship" speed="3.65" length="4.67" shape="91.11,1286.88 89.95,1287.74 89.59,1288.56 90.04,1289.34 91.28,1290.07"/>
    </edge>
    <edge id=":3036816068_0" function="internal">
        <lane id=":3036816068_0_0" index="0" disallow="tram rail_urban rail rail_electric rail_fast ship" speed="3.65" length="4.67" shape="242.10,1415.29 242.19,1416.73 242.68,1417.48 243.57,1417.54 244.87,1416.91"/>
    </edge>
    <edge id=":3036816073_0" function="internal">
        <lane id=":3036816073_0_0" index="0" disallow="tram rail_urban rail rail_electric rail_fast ship" speed="3.65" length="4.67" shape="111.44,1448.76 111.93,1450.12 112.61,1450.70 113.48,1450.50 114.55,1449.52"/>
    </edge>
    <edge id=":308729380_0" function="internal">
        <lane id=":308729380_0_0" index="0" disallow="tram rail_urban rail rail_electric rail_fast ship" speed="3.65" length="4.67" shape="1034.56,1333.71 1035.75,1332.90 1036.14,1332.09 1035.73,1331.30 1034.52,1330.51"/>
    </edge>
    <edge id=":308729387_0" function="internal">
        <lane id=":308729387_0_0" index="0" disallow="tram rail_urban rail rail_electric rail_fast ship" speed="6.50" length="9.03" shape="631.14,1335.36 628.68,1335.03 626.93,1334.00 625.87,1332.25 625.50,1329.80"/>
    </edge>
    <edge id=":308729387_1" function="internal">
        <lane id=":308729387_1_0" index="0" disallow="tram rail_urban rail rail_electric rail_fast ship" speed="13.89" length="14.44" shape="631.14,1335.36 616.70,1335.51"/>
    </edge>
    <edge id=":308729387_2" function="internal">
        <lane id=":308729387_2_0" index="0" disallow="tram rail_urban rail rail_electric rail_fast ship" speed="8.02" length="14.22" shape="631.14,1335.36 627.29,1335.94 624.55,1337.62 622.91,1340.39 622.38,1344.25"/>
    </edge>
    <edge id=":308729387_3" function="internal">
        <lane id=":308729387_3_0" index="0" disallow="tram rail_urban rail rail_electric rail_fast ship" speed="3.65" length="4.67" shape="631.14,1335.36 629.95,1336.17 629.55,1336.97 629.96,1337.77 631.17,1338.56"/>
    </edge>
    <edge id=":308729387_4" function="internal">
        <lane id=":308729387_4_0" index="0" disallow="tram rail_urban rail rail_electric rail_fast ship" speed="6.53" length="9.07" shape="625.58,1344.24 625.92,1341.77 626.96,1340.00 628.71,1338.93 631.17,1338.56"/>
    </edge>
    <edge id=":308729387_5" function="internal">
        <lane id=":308729387_5_0" index="0" disallow="tram rail_urban rail rail_electric rail_fast ship" speed="13.89" length="14.43" shape="625.58,1344.24 625.50,1329.80"/>
    </edge>
    <edge id=":308729387_6" function="internal">
        <lane id=":308729387_6_0" index="0" disallow="tram rail_urban rail rail_electric rail_fast ship" speed="7.99" length="5.93" shape="625.58,1344.24 625.01,1340.38 623.95,1338.64"/>
    </edge>
    <edge id=":308729387_7" function="internal">
        <lane id=":308729387_7_0" index="0" disallow="tram rail_urban rail rail_electric rail_fast ship" speed="3.65" length="2.34" shape="625.58,1344.24 624.78,1343.04 623.97,1342.64"/>
    </edge>
    <edge id=":308729387_16" function="internal">
        <lane id=":308729387_16_0" index="0" disallow="tram rail_urban rail rail_electric rail_fast ship" speed="7.99" length="8.29" shape="623.95,1338.64 623.34,1337.64 620.57,1336.02 616.70,1335.51"/>
    </edge>
    <edge id=":308729387_17" function="internal">
        <lane id=":308729387_17_0" index="0" disallow="tram rail_urban rail rail_electric rail_fast ship" speed="3.65" length="2.34" shape="623.97,1342.64 623.18,1343.05 622.38,1344.25"/>
    </edge>
    <edge id=":308729387_8" function="internal">
        <lane id=":308729387_8_0" index="0" disallow="tram rail_urban rail rail_electric rail_fast ship" speed="6.49" length="9.03" shape="616.74,1338.71 619.20,1339.03 620.96,1340.06 622.02,1341.80 622.38,1344.25"/>
    </edge>
    <edge id=":308729387_9" function="internal">
        <lane id=":308729387_9_0" index="0" disallow="tram rail_urban rail rail_electric rail_fast ship" speed="13.89" length="14.43" shape="616.74,1338.71 631.17,1338.56"/>
    </edge>
    <edge id=":308729387_10" function="internal">
        <lane id=":308729387_10_0" index="0" disallow="tram rail_urban rail rail_electric rail_fast ship" speed="8.03" length="14.23" shape="616.74,1338.71 620.59,1338.11 623.34,1336.43 624.97,1333.66 625.50,1329.80"/>
    </edge>
    <edge id=":308729387_11" function="internal">
        <lane id=":308729387_11_0" index="0" disallow="tram rail_urban rail rail_electric rail_fast ship" speed="3.65" length="4.67" shape="616.74,1338.71 617.93,1337.90 618.32,1337.09 617.91,1336.30 616.70,1335.51"/>
    </edge>
    <edge id=":308729387_12" function="internal">
        <lane id=":308729387_12_0" index="0" disallow="tram rail_urban rail rail_electric rail_fast ship" speed="6.54" length="9.09" shape="622.30,1329.82 621.96,1332.29 620.92,1334.06 619.16,1335.13 616.70,1335.51"/>
    </edge>
    <edge id=":308729387_13" function="internal">
        <lane id=":308729387_13_0" index="0" disallow="tram rail_urban rail rail_electric rail_fast ship" speed="13.89" length="14.43" shape="622.30,1329.82 622.38,1344.25"/>
    </edge>
    <edge id=":308729387_14" function="internal">
        <lane id=":308729387_14_0" index="0" disallow="tram rail_urban rail rail_electric rail_fast ship" speed="8.00" length="5.93" shape="622.30,1329.82 622.87,1333.67 623.93,1335.41"/>
    </edge>
    <edge id=":308729387_15" function="internal">
        <lane id=":308729387_15_0" index="0" disallow="tram rail_urban rail rail_electric rail_fast ship" speed="3.65" length="2.34" shape="622.30,1329.82 623.11,1331.02 623.91,1331.41"/>
    </edge>
    <edge id=":308729387_18" function="internal">
        <lane id=":308729387_18_0" index="0" disallow="tram rail_urban rail rail_electric rail_fast ship" speed="8.00" length="8.28" shape="623.93,1335.41 624.54,1336.41 627.31,1338.04 631.17,1338.56"/>
    </edge>
    <edge id=":308729387_19" function="internal">
        <lane id=":308729387_19_0" index="0" disallow="tram rail_urban rail rail_electric rail_fast ship" speed="3.65" length="2.34" shape="623.91,1331.41 624.71,1331.01 625.50,1329.80"/>
    </edge>
    <edge id=":308729423_0" function="internal">
        <lane id=":308729423_0_0" index="0" disallow="tram rail_urban rail rail_electric rail_fast ship" speed="6.51" length="9.03" shape="630.82,1282.28 628.36,1281.95 626.60,1280.92 625.53,1279.18 625.15,1276.74"/>
    </edge>
    <edge id=":308729423_1" function="internal">
        <lane id=":308729423_1_0" index="0" disallow="tram rail_urban rail rail_electric rail_fast ship" speed="13.89" length="14.42" shape="630.82,1282.28 616.39,1282.45"/>
    </edge>
    <edge id=":308729423_2" function="internal">
        <lane id=":308729423_2_0" index="0" disallow="tram rail_urban rail rail_electric rail_fast ship" speed="8.02" length="14.22" shape="630.82,1282.28 626.98,1282.87 624.24,1284.55 622.61,1287.32 622.08,1291.19"/>
    </edge>
    <edge id=":308729423_3" function="internal">
        <lane id=":308729423_3_0" index="0" disallow="tram rail_urban rail rail_electric rail_fast ship" speed="3.65" length="4.67" shape="630.82,1282.28 629.63,1283.09 629.23,1283.89 629.64,1284.69 630.85,1285.48"/>
    </edge>
    <edge id=":308729423_4" function="internal">
        <lane id=":308729423_4_0" index="0" disallow="tram rail_urban rail rail_electric rail_fast ship" speed="6.53" length="9.07" shape="625.28,1291.17 625.62,1288.70 626.66,1286.93 628.40,1285.85 630.85,1285.48"/>
    </edge>
    <edge id=":308729423_5" function="internal">
        <lane id=":308729423_5_0" index="0" disallow="tram rail_urban rail rail_electric rail_fast ship" speed="13.89" length="14.43" shape="625.28,1291.17 625.15,1276.74"/>
    </edge>
    <edge id=":308729423_6" function="internal">
        <lane id=":308729423_6_0" index="0" disallow="tram rail_urban rail rail_electric rail_fast ship" speed="7.99" length="5.97" shape="625.28,1291.17 624.71,1287.31 623.63,1285.55"/>
    </edge>
    <edge id=":308729423_7" function="internal">
        <lane id=":308729423_7_0" index="0" disallow="tram rail_urban rail rail_electric rail_fast ship" speed="3.65" length="2.34" shape="625.28,1291.17 624.47,1289.97 623.67,1289.58"/>
    </edge>
    <edge id=":308729423_16" function="internal">
        <lane id=":308729423_16_0" index="0" disallow="tram rail_urban rail rail_electric rail_fast ship" speed="7.99" length="8.26" shape="623.63,1285.55 623.03,1284.57 620.26,1282.95 616.39,1282.45"/>
    </edge>
    <edge id=":308729423_17" function="internal">
        <lane id=":308729423_17_0" index="0" disallow="tram rail_urban rail rail_electric rail_fast ship" speed="3.65" length="2.34" shape="623.67,1289.58 622.87,1289.98 622.08,1291.19"/>
    </edge>
    <edge id=":308729423_8" function="internal">
        <lane id=":308729423_8_0" index="0" disallow="tram rail_urban rail rail_electric rail_fast ship" speed="6.49" length="9.03" shape="616.44,1285.65 618.89,1285.97 620.65,1287.00 621.72,1288.74 622.08,1291.19"/>
    </edge>
    <edge id=":308729423_9" function="internal">
        <lane id=":308729423_9_0" index="0" disallow="tram rail_urban rail rail_electric rail_fast ship" speed="13.89" length="14.42" shape="616.44,1285.65 630.85,1285.48"/>
    </edge>
    <edge id=":308729423_10" function="internal">
        <lane id=":308729423_10_0" index="0" disallow="tram rail_urban rail rail_electric rail_fast ship" speed="8.01" length="14.21" shape="616.44,1285.65 620.29,1285.05 623.03,1283.36 624.65,1280.59 625.15,1276.74"/>
    </edge>
    <edge id=":308729423_11" function="internal">
        <lane id=":308729423_11_0" index="0" disallow="tram rail_urban rail rail_electric rail_fast ship" speed="3.65" length="4.67" shape="616.44,1285.65 617.63,1284.83 618.02,1284.03 617.60,1283.23 616.39,1282.45"/>
    </edge>
    <edge id=":308729423_12" function="internal">
        <lane id=":308729423_12_0" index="0" disallow="tram rail_urban rail rail_electric rail_fast ship" speed="6.52" length="9.05" shape="621.95,1276.78 621.63,1279.23 620.60,1280.99 618.85,1282.07 616.39,1282.45"/>
    </edge>
    <edge id=":308729423_13" function="internal">
        <lane id=":308729423_13_0" index="0" disallow="tram rail_urban rail rail_electric rail_fast ship" speed="13.89" length="14.41" shape="621.95,1276.78 622.08,1291.19"/>
    </edge>
    <edge id=":308729423_14" function="internal">
        <lane id=":308729423_14_0" index="0" disallow="tram rail_urban rail rail_electric rail_fast ship" speed="8.00" length="5.89" shape="621.95,1276.78 622.55,1280.62 623.60,1282.33"/>
    </edge>
    <edge id=":308729423_15" function="internal">
        <lane id=":308729423_15_0" index="0" disallow="tram rail_urban rail rail_electric rail_fast ship" speed="3.65" length="2.34" shape="621.95,1276.78 622.77,1277.97 623.57,1278.36"/>
    </edge>
    <edge id=":308729423_18" function="internal">
        <lane id=":308729423_18_0" index="0" disallow="tram rail_urban rail rail_electric rail_fast ship" speed="8.00" length="8.29" shape="623.60,1282.33 624.23,1283.35 627.00,1284.97 630.85,1285.48"/>
    </edge>
    <edge id=":308729423_19" function="internal">
        <lane id=":308729423_19_0" index="0" disallow="tram rail_urban rail rail_electric rail_fast ship" speed="3.65" length="2.34" shape="623.57,1278.36 624.37,1277.95 625.15,1276.74"/>
    </edge>
    <edge id=":308729447_0" function="internal">
        <lane id=":308729447_0_0" index="0" disallow="tram rail_urban rail rail_electric rail_fast ship" speed="3.65" length="4.67" shape="1035.32,1280.02 1036.51,1279.20 1036.90,1278.40 1036.48,1277.60 1035.27,1276.82"/>
    </edge>
    <edge id=":308729448_0" function="internal">
        <lane id=":308729448_0_0" index="0" disallow="tram rail_urban rail rail_electric rail_fast ship" speed="6.51" length="9.02" shape="491.00,1284.14 488.55,1283.82 486.79,1282.80 485.71,1281.07 485.32,1278.63"/>
    </edge>
    <edge id=":308729448_1" function="internal">
        <lane id=":308729448_1_0" index="0" disallow="tram rail_urban rail rail_electric rail_fast ship" speed="8.01" length="14.16" shape="491.00,1284.14 487.16,1284.74 484.44,1286.42 482.81,1289.18 482.29,1293.02"/>
    </edge>
    <edge id=":308729448_2" function="internal">
        <lane id=":308729448_2_0" index="0" disallow="tram rail_urban rail rail_electric rail_fast ship" speed="3.65" length="4.67" shape="491.00,1284.14 489.81,1284.95 489.42,1285.76 489.83,1286.55 491.04,1287.34"/>
    </edge>
    <edge id=":308729448_3" function="internal">
        <lane id=":308729448_3_0" index="0" disallow="tram rail_urban rail rail_electric rail_fast ship" speed="6.52" length="9.02" shape="485.49,1293.00 485.82,1290.55 486.86,1288.79 488.60,1287.72 491.04,1287.34"/>
    </edge>
    <edge id=":308729448_4" function="internal">
        <lane id=":308729448_4_0" index="0" disallow="tram rail_urban rail rail_electric rail_fast ship" speed="13.89" length="14.37" shape="485.49,1293.00 485.32,1278.63"/>
    </edge>
    <edge id=":308729448_5" function="internal">
        <lane id=":308729448_5_0" index="0" disallow="tram rail_urban rail rail_electric rail_fast ship" speed="3.65" length="2.34" shape="485.49,1293.00 484.68,1291.80 483.88,1291.41"/>
    </edge>
    <edge id=":308729448_9" function="internal">
        <lane id=":308729448_9_0" index="0" disallow="tram rail_urban rail rail_electric rail_fast ship" speed="3.65" length="2.34" shape="483.88,1291.41 483.08,1291.81 482.29,1293.02"/>
    </edge>
    <edge id=":308729448_6" function="internal">
        <lane id=":308729448_6_0" index="0" disallow="tram rail_urban rail rail_electric rail_fast ship" speed="13.89" length="14.34" shape="482.12,1278.68 482.29,1293.02"/>
    </edge>
    <edge id=":308729448_7" function="internal">
        <lane id=":308729448_7_0" index="0" disallow="tram rail_urban rail rail_electric rail_fast ship" speed="8.00" length="5.88" shape="482.12,1278.68 482.73,1282.51 483.79,1284.21"/>
    </edge>
    <edge id=":308729448_8" function="internal">
        <lane id=":308729448_8_0" index="0" disallow="tram rail_urban rail rail_electric rail_fast ship" speed="3.65" length="2.34" shape="482.12,1278.68 482.94,1279.86 483.75,1280.25"/>
    </edge>
    <edge id=":308729448_10" function="internal">
        <lane id=":308729448_10_0" index="0" disallow="tram rail_urban rail rail_electric rail_fast ship" speed="8.00" length="8.28" shape="483.79,1284.21 484.42,1285.23 487.19,1286.84 491.04,1287.34"/>
    </edge>
    <edge id=":308729448_11" function="internal">
        <lane id=":308729448_11_0" index="0" disallow="tram rail_urban rail rail_electric rail_fast ship" speed="3.65" length="2.34" shape="483.75,1280.25 484.54,1279.84 485.32,1278.63"/>
    </edge>
    <edge id=":308730270_0" function="internal">
        <lane id=":308730270_0_0" index="0" disallow="tram rail_urban rail rail_electric rail_fast ship" speed="6.50" length="9.03" shape="491.45,1337.01 489.00,1336.69 487.24,1335.66 486.17,1333.92 485.80,1331.47"/>
    </edge>
    <edge id=":308730270_1" function="internal">
        <lane id=":308730270_1_0" index="0" disallow="tram rail_urban rail rail_electric rail_fast ship" speed="8.06" length="14.17" shape="491.45,1337.01 487.61,1337.60 484.85,1339.26 483.17,1342.00 482.59,1345.81"/>
    </edge>
    <edge id=":308730270_2" function="internal">
        <lane id=":308730270_2_0" index="0" disallow="tram rail_urban rail rail_electric rail_fast ship" speed="3.65" length="4.67" shape="491.45,1337.01 490.26,1337.83 489.87,1338.63 490.28,1339.43 491.49,1340.21"/>
    </edge>
    <edge id=":308730270_3" function="internal">
        <lane id=":308730270_3_0" index="0" disallow="tram rail_urban rail rail_electric rail_fast ship" speed="6.58" length="9.10" shape="485.79,1345.84 486.16,1343.40 487.24,1341.65 489.02,1340.59 491.49,1340.21"/>
    </edge>
    <edge id=":308730270_4" function="internal">
        <lane id=":308730270_4_0" index="0" disallow="tram rail_urban rail rail_electric rail_fast ship" speed="13.89" length="14.37" shape="485.79,1345.84 485.80,1331.47"/>
    </edge>
    <edge id=":308730270_5" function="internal">
        <lane id=":308730270_5_0" index="0" disallow="tram rail_urban rail rail_electric rail_fast ship" speed="3.65" length="2.34" shape="485.79,1345.84 485.00,1344.63 484.20,1344.23"/>
    </edge>
    <edge id=":308730270_9" function="internal">
        <lane id=":308730270_9_0" index="0" disallow="tram rail_urban rail rail_electric rail_fast ship" speed="3.65" length="2.34" shape="484.20,1344.23 483.40,1344.62 482.59,1345.81"/>
    </edge>
    <edge id=":308730270_6" function="internal">