<?xml version="1.0" encoding="UTF-8"?>

<!-- generated on Sun Mar 21 21:08:32 2021 by Eclipse SUMO polyconvert Version 1.8.0
<configuration xmlns:xsi="http://www.w3.org/2001/XMLSchema-instance" xsi:noNamespaceSchemaLocation="http://sumo.dlr.de/xsd/polyconvertConfiguration.xsd">

    <input>
        <net-file value="osm.net.xml"/>
        <osm-files value="osm_bbox.osm.xml"/>
        <osm.keep-full-type value="true"/>
        <type-file value="/usr/local/opt/sumo/share/sumo/data/typemap/osmPolyconvert.typ.xml"/>
    </input>

    <output>
        <output-file value="osm.poly.xml"/>
    </output>

    <processing>
        <poi-layer-offset value="5"/>
    </processing>

    <report>
        <verbose value="true"/>
    </report>

</configuration>
-->

<additional xmlns:xsi="http://www.w3.org/2001/XMLSchema-instance" xsi:noNamespaceSchemaLocation="http://sumo.dlr.de/xsd/additional_file.xsd">
    <location netOffset="-778898.02,-1428200.42" convBoundary="-173.61,-0.00,3241.08,1884.92" origBoundary="77.568655,12.906462,77.600092,12.923555" projParameter="+proj=utm +zone=43 +ellps=WGS84 +datum=WGS84 +units=m +no_defs"/>

    <poly id="118411727" type="amenity.place_of_worship" color="237,199,199" fill="1" layer="-1.00" shape="347.983939,1085.479241 286.247893,1083.707812 293.508511,941.390168 350.603288,943.646274 347.983939,1085.479241"/>
    <poly id="154094631" type="landuse.residential" color="235,235,227" fill="1" layer="-3.00" shape="601.639186,1005.082741 602.595386,1054.696149 650.456064,1085.420174 669.928408,1168.296441 699.328036,1172.123453 699.970685,1157.894137 713.069526,995.664955 656.864178,951.396032 610.076337,941.383365 601.639186,1005.082741"/>
    <poly id="162332398" type="amenity.bus_station" color="237,199,199" fill="1" layer="-1.00" shape="251.614911,1283.069821 251.715678,1271.956776 251.806549,1261.828842 252.596345,1173.466738 270.287329,1173.256987 344.185632,1171.718981 342.600840,1219.214576 342.973059,1261.062104 314.067293,1270.778765 320.483281,1293.624841 285.234179,1315.421342 255.972409,1306.537243 251.614911,1283.069821"/>
    <poly id="169816703" type="building.yes" color="255,230,230" fill="1" layer="-1.00" shape="761.307973,1032.016440 829.691764,1089.714130 822.631611,1097.458372 824.007900,1105.287518 813.945116,1115.746859 771.186265,1115.438352 746.776773,1084.031218 761.307973,1032.016440"/>
    <poly id="169816703#1" type="landuse.residential" color="235,235,227" fill="1" layer="-3.00" shape="761.307973,1032.016440 829.691764,1089.714130 822.631611,1097.458372 824.007900,1105.287518 813.945116,1115.746859 771.186265,1115.438352 746.776773,1084.031218 761.307973,1032.016440"/>
    <poly id="173154283" type="amenity.bus_station" color="237,199,199" fill="1" layer="-1.00" shape="261.490170,1253.413450 262.462452,1178.237280 324.609797,1179.038690 323.774120,1243.843877 319.626622,1243.791138 319.489850,1254.162151 261.490170,1253.413450"/>
    <poly id="173154283#1" type="building.yes" color="255,230,230" fill="1" layer="-1.00" shape="261.490170,1253.413450 262.462452,1178.237280 324.609797,1179.038690 323.774120,1243.843877 319.626622,1243.791138 319.489850,1254.162151 261.490170,1253.413450"/>
    <poly id="32427115" type="landuse.residential" color="235,235,227" fill="1" layer="-3.00" shape="1031.085073,1199.130198 859.132704,1200.564792 806.907835,1243.145042 381.389755,1243.913587 367.218481,1260.187678 439.538678,1437.234169 464.287899,1596.843776 496.865508,1698.161144 1024.350393,1691.969218 1031.085073,1199.130198"/>
    <poly id="331975436" type="building.yes" color="255,230,230" fill="1" layer="-1.00" shape="255.456230,1022.780447 202.145495,1018.946313 197.131171,1087.915994 250.441882,1091.739075 255.456230,1022.780447"/>
    <poly id="331975436#1" type="man_made.reservoir_covered" color="255,230,230" fill="1" layer="-1.00" shape="255.456230,1022.780447 202.145495,1018.946313 197.131171,1087.915994 250.441882,1091.739075 255.456230,1022.780447"/>
    <poly id="334633598" type="landuse.residential" color="235,235,227" fill="1" layer="-3.00" shape="1676.747339,327.853999 1682.567102,6.066901 349.738236,4.687823 329.740518,135.088275 314.421771,317.541493 312.363584,450.070322 310.608583,559.964512 370.672477,874.263224 384.210822,948.024378 398.807214,1161.784735 436.694508,1214.614169 799.951410,1210.374777 841.453817,1169.358125 1684.958329,1163.746692 1682.220329,878.824326 1676.481609,681.357076 1676.747339,327.853999"/>
    <poly id="334647977" type="amenity.place_of_worship" color="237,199,199" fill="1" layer="-1.00" shape="303.954002,985.785270 342.858789,988.179702 340.449519,1026.955089 301.555534,1024.571828 303.954002,985.785270"/>
    <poly id="334647977#1" type="building.yes" color="255,230,230" fill="1" layer="-1.00" shape="303.954002,985.785270 342.858789,988.179702 340.449519,1026.955089 301.555534,1024.571828 303.954002,985.785270"/>
    <poly id="345965290" type="building.yes" color="255,230,230" fill="1" layer="-1.00" shape="309.758922,1100.825393 335.794243,1102.304616 336.636807,1087.612408 310.612329,1086.133296 309.758922,1100.825393"/>
    <poly id="345965321" type="building.yes" color="255,230,230" fill="1" layer="-1.00" shape="276.615396,1072.973003 282.552434,1073.242961 283.081538,1061.647147 277.133529,1061.388149 276.615396,1072.973003"/>
    <poly id="345965325" type="building.yes" color="255,230,230" fill="1" layer="-1.00" shape="337.278182,1117.806152 345.677901,1118.300123 346.187200,1109.759366 337.776620,1109.265287 337.278182,1117.806152"/>
    <poly id="347065222" type="building.yes" color="255,230,230" fill="1" layer="-1.00" shape="461.841712,1261.227230 474.250636,1261.484805 474.378870,1255.209520 461.958974,1254.962905 461.841712,1261.227230"/>
    <poly id="347065223" type="building.yes" color="255,230,230" fill="1" layer="-1.00" shape="503.140214,1301.991810 509.643252,1302.123610 509.899629,1289.584105 503.407445,1289.452415 503.140214,1301.991810"/>
    <poly id="347065225" type="building.yes" color="255,230,230" fill="1" layer="-1.00" shape="679.774446,1272.208181 686.071315,1272.326877 686.271590,1262.133594 679.985687,1262.003939 679.774446,1272.208181"/>
    <poly id="347065231" type="building.yes" color="255,230,230" fill="1" layer="-1.00" shape="461.427207,1290.580160 471.306628,1290.779100 471.468818,1283.286479 461.578536,1283.087430 461.427207,1290.580160"/>
    <poly id="347065233" type="building.yes" color="255,230,230" fill="1" layer="-1.00" shape="717.048203,1256.443387 723.334109,1256.573050 723.575489,1244.454030 717.289580,1244.324367 717.048203,1256.443387"/>
    <poly id="347065235" type="building.yes" color="255,230,230" fill="1" layer="-1.00" shape="524.337587,1326.713471 534.814168,1326.918440 535.155947,1310.206477 524.679471,1309.990440 524.337587,1326.713471"/>
    <poly id="347065237" type="building.yes" color="255,230,230" fill="1" layer="-1.00" shape="594.522098,1353.234036 599.906907,1353.343543 600.145124,1341.534455 594.771170,1341.425057 594.522098,1353.234036"/>
    <poly id="347065240" type="building.yes" color="255,230,230" fill="1" layer="-1.00" shape="461.689577,1344.415213 473.534092,1344.644982 473.656432,1338.956337 461.801169,1338.715390 461.689577,1344.415213"/>
    <poly id="347065245" type="building.yes" color="255,230,230" fill="1" layer="-1.00" shape="782.369650,1304.390949 791.608487,1304.583557 791.911994,1289.531654 782.673151,1289.339046 782.369650,1304.390949"/>
    <poly id="347065248" type="building.yes" color="255,230,230" fill="1" layer="-1.00" shape="680.839987,1354.102309 687.505885,1354.235791 687.764796,1341.452761 681.098895,1341.319279 680.839987,1354.102309"/>
    <poly id="347065257" type="building.yes" color="255,230,230" fill="1" layer="-1.00" shape="635.765994,1306.557905 645.884289,1306.759311 646.248458,1288.907370 636.119299,1288.705856 635.765994,1306.557905"/>
    <poly id="347065259" type="building.yes" color="255,230,230" fill="1" layer="-1.00" shape="725.231736,1271.945978 732.472998,1272.096326 732.734374,1259.069782 725.503854,1258.930612 725.231736,1271.945978"/>
    <poly id="347065262" type="building.yes" color="255,230,230" fill="1" layer="-1.00" shape="671.348349,1257.068473 676.885187,1257.179520 677.139853,1244.817102 671.592155,1244.705945 671.348349,1257.068473"/>
    <poly id="347065265" type="building.yes" color="255,230,230" fill="1" layer="-1.00" shape="573.766816,1272.680657 580.117858,1272.810943 580.354501,1261.156819 574.003457,1261.026533 573.766816,1272.680657"/>
    <poly id="347065268" type="building.yes" color="255,230,230" fill="1" layer="-1.00" shape="379.929158,1272.558592 386.429727,1270.775263 382.384068,1256.266393 375.883497,1258.049723 379.929158,1272.558592"/>
    <poly id="347065272" type="building.yes" color="255,230,230" fill="1" layer="-1.00" shape="708.449342,1268.190506 713.617019,1268.297847 713.809174,1258.912577 708.641383,1258.816305 708.449342,1268.190506"/>
    <poly id="347065275" type="building.yes" color="255,230,230" fill="1" layer="-1.00" shape="593.432248,1362.267106 602.790489,1362.460857 602.928219,1355.244728 593.580834,1355.051087 593.432248,1362.267106"/>
    <poly id="347065276" type="building.yes" color="255,230,230" fill="1" layer="-1.00" shape="453.849743,1326.038032 461.329846,1326.190713 461.351274,1325.139298 461.498933,1318.011834 454.007970,1317.859044 445.528966,1317.696325 445.370741,1325.875312 453.849743,1326.038032"/>
    <poly id="347065287" type="building.yes" color="255,230,230" fill="1" layer="-1.00" shape="512.315094,1307.463977 520.880854,1307.638658 521.222066,1290.982039 512.645443,1290.807250 512.315094,1307.463977"/>
    <poly id="347065288" type="building.yes" color="255,230,230" fill="1" layer="-1.00" shape="717.618783,1369.173065 724.132673,1369.305027 724.387259,1356.953673 717.873366,1356.821711 717.618783,1369.173065"/>
    <poly id="347065290" type="building.yes" color="255,230,230" fill="1" layer="-1.00" shape="636.470836,1327.165910 645.090885,1327.341177 645.477271,1308.360339 636.857216,1308.185073 636.470836,1327.165910"/>
    <poly id="347065294" type="building.yes" color="255,230,230" fill="1" layer="-1.00" shape="421.234010,1351.591366 431.733716,1349.494014 430.109403,1341.485297 419.609694,1343.582650 421.234010,1351.591366"/>
    <poly id="347065295" type="building.yes" color="255,230,230" fill="1" layer="-1.00" shape="546.237571,1356.069399 555.378770,1356.249880 555.640403,1343.190143 546.510169,1342.998703 546.237571,1356.069399"/>
    <poly id="347065296" type="building.yes" color="255,230,230" fill="1" layer="-1.00" shape="597.278005,1312.425237 607.754597,1312.630233 608.008904,1300.301025 597.532419,1300.084961 597.278005,1312.425237"/>
    <poly id="347065300" type="building.yes" color="255,230,230" fill="1" layer="-1.00" shape="662.394387,1368.883127 670.352223,1369.040673 670.616027,1355.770622 662.658299,1355.602008 662.394387,1368.883127"/>
    <poly id="347065302" type="building.yes" color="255,230,230" fill="1" layer="-1.00" shape="660.865039,1326.614270 670.451417,1326.799266 670.749738,1312.256534 661.163466,1312.060470 660.865039,1326.614270"/>
    <poly id="347065306" type="building.yes" color="255,230,230" fill="1" layer="-1.00" shape="564.347976,1274.191063 571.990962,1274.345409 572.276811,1259.957538 564.644678,1259.803302 564.347976,1274.191063"/>
    <poly id="347065311" type="building.yes" color="255,230,230" fill="1" layer="-1.00" shape="695.343462,1303.747732 705.505192,1303.949597 705.785878,1290.081942 695.624143,1289.880079 695.343462,1303.747732"/>
    <poly id="347065314" type="building.yes" color="255,230,230" fill="1" layer="-1.00" shape="572.972218,1324.700746 583.980715,1324.922153 584.287784,1309.505003 573.279282,1309.283597 572.972218,1324.700746"/>
    <poly id="347065316" type="building.yes" color="255,230,230" fill="1" layer="-1.00" shape="757.214385,1296.399998 767.245720,1296.611642 767.413782,1288.543434 757.382333,1288.342859 757.214385,1296.399998"/>
    <poly id="347065322" type="building.yes" color="255,230,230" fill="1" layer="-1.00" shape="682.147578,1368.760827 689.204345,1368.898243 689.343101,1361.582492 682.297189,1361.445185 682.147578,1368.760827"/>
    <poly id="347065328" type="building.yes" color="255,230,230" fill="1" layer="-1.00" shape="491.687863,1359.959903 507.104073,1360.269876 507.410992,1344.863801 492.005631,1344.553939 491.687863,1359.959903"/>
    <poly id="347065329" type="building.yes" color="255,230,230" fill="1" layer="-1.00" shape="709.343791,1370.318553 714.565737,1370.426444 714.807123,1358.307424 709.585174,1358.199533 709.343791,1370.318553"/>
    <poly id="347065334" type="building.yes" color="255,230,230" fill="1" layer="-1.00" shape="537.718178,1371.802478 543.309277,1371.914049 543.583767,1358.655186 537.992666,1358.543615 537.718178,1371.802478"/>
    <poly id="347065335" type="building.yes" color="255,230,230" fill="1" layer="-1.00" shape="773.674611,1352.667491 787.060704,1352.935049 787.300560,1340.970985 773.914461,1340.703429 773.674611,1352.667491"/>
    <poly id="347065337" type="building.yes" color="255,230,230" fill="1" layer="-1.00" shape="491.716174,1257.774884 501.541321,1257.973286 501.818563,1244.437710 491.993411,1244.239308 491.716174,1257.774884"/>
    <poly id="347065338" type="building.yes" color="255,230,230" fill="1" layer="-1.00" shape="571.976161,1351.402168 581.931572,1351.601916 582.099249,1343.566924 572.143836,1343.367176 571.976161,1351.402168"/>
    <poly id="347065342" type="building.yes" color="255,230,230" fill="1" layer="-1.00" shape="635.162662,1370.856361 642.621046,1371.008874 642.924368,1355.968053 635.465979,1355.815540 635.162662,1370.856361"/>
    <poly id="347065344" type="building.yes" color="255,230,230" fill="1" layer="-1.00" shape="447.330573,1371.801451 457.904738,1372.018446 458.040763,1364.968353 447.466594,1364.751359 447.330573,1371.801451"/>
    <poly id="347065346" type="building.yes" color="255,230,230" fill="1" layer="-1.00" shape="538.225581,1328.901028 548.028991,1329.099234 548.459397,1307.893820 538.655979,1307.695616 538.225581,1328.901028"/>
    <poly id="347065352" type="building.yes" color="255,230,230" fill="1" layer="-1.00" shape="525.003187,1273.474423 533.449525,1273.647905 533.721775,1260.610417 525.275434,1260.436936 525.003187,1273.474423"/>
    <poly id="347065353" type="building.yes" color="255,230,230" fill="1" layer="-1.00" shape="608.242504,1273.835466 608.516460,1260.631942 600.927756,1260.478132 600.664661,1273.681765 608.242504,1273.835466"/>
    <poly id="347065355" type="building.yes" color="255,230,230" fill="1" layer="-1.00" shape="683.879718,1327.188964 692.847214,1327.367741 693.229066,1308.840714 684.261565,1308.661938 683.879718,1327.188964"/>
    <poly id="347065356" type="building.yes" color="255,230,230" fill="1" layer="-1.00" shape="462.642158,1352.273275 473.010149,1352.477131 473.103764,1347.485594 462.735882,1347.270669 462.642158,1352.273275"/>
    <poly id="347065358" type="building.yes" color="255,230,230" fill="1" layer="-1.00" shape="561.833533,1322.308353 571.636946,1322.506567 571.934102,1308.074530 562.119826,1307.876208 561.833533,1322.308353"/>
    <poly id="347065360" type="building.yes" color="255,230,230" fill="1" layer="-1.00" shape="781.191707,1255.273368 787.379896,1255.402063 787.592178,1245.098195 781.393129,1244.969392 781.191707,1255.273368"/>
    <poly id="347065362" type="building.yes" color="255,230,230" fill="1" layer="-1.00" shape="743.413602,1306.046844 754.324399,1306.267334 754.710968,1287.275415 743.800163,1287.054926 743.413602,1306.046844"/>
    <poly id="347065368" type="building.yes" color="255,230,230" fill="1" layer="-1.00" shape="672.409702,1354.493498 678.739014,1354.623592 679.035783,1340.235821 672.706356,1340.116796 672.409702,1354.493498"/>
    <poly id="347065376" type="building.yes" color="255,230,230" fill="1" layer="-1.00" shape="779.825216,1271.288717 787.630968,1271.455830 787.869481,1259.624592 780.063614,1259.468548 779.825216,1271.288717"/>
    <poly id="347065378" type="building.yes" color="255,230,230" fill="1" layer="-1.00" shape="701.729387,1370.562964 707.765653,1370.679048 707.999017,1359.356974 701.962749,1359.240891 701.729387,1370.562964"/>
    <poly id="347065380" type="building.yes" color="255,230,230" fill="1" layer="-1.00" shape="644.019317,1268.704684 650.402936,1268.835314 650.595181,1259.438979 644.211560,1259.308349 644.019317,1268.704684"/>
    <poly id="347065383" type="building.yes" color="255,230,230" fill="1" layer="-1.00" shape="446.420893,1279.735896 457.679123,1279.959760 457.827113,1272.799090 446.568991,1272.564159 446.420893,1279.735896"/>
    <poly id="347065387" type="building.yes" color="255,230,230" fill="1" layer="-1.00" shape="512.498868,1320.506048 522.432571,1320.705554 522.653773,1309.505140 512.730925,1309.305744 512.498868,1320.506048"/>
    <poly id="347065392" type="building.yes" color="255,230,230" fill="1" layer="-1.00" shape="528.452705,1371.022983 535.889369,1371.175249 536.122885,1359.831051 528.686218,1359.678784 528.452705,1371.022983"/>
    <poly id="347065394" type="building.yes" color="255,230,230" fill="1" layer="-1.00" shape="737.140251,1364.022775 743.806149,1364.156271 743.978440,1355.667454 737.312540,1355.533958 737.140251,1364.022775"/>
    <poly id="347065397" type="building.yes" color="255,230,230" fill="1" layer="-1.00" shape="576.291292,1362.858533 583.369661,1363.007209 583.460735,1358.270248 576.382366,1358.121573 576.291292,1362.858533"/>
    <poly id="347065401" type="building.yes" color="255,230,230" fill="1" layer="-1.00" shape="461.257861,1307.426686 474.481084,1307.692451 474.597350,1301.527744 461.384981,1301.262088 461.257861,1307.426686"/>
    <poly id="347065406" type="building.yes" color="255,230,230" fill="1" layer="-1.00" shape="425.061709,1373.736216 434.289199,1373.972875 434.486849,1366.192797 425.259356,1365.956138 425.061709,1373.736216"/>
    <poly id="347065419" type="building.yes" color="255,230,230" fill="1" layer="-1.00" shape="707.880903,1256.694319 713.244020,1256.803626 713.501933,1244.120213 708.138813,1244.010906 707.880903,1256.694319"/>
    <poly id="347065425" type="building.yes" color="255,230,230" fill="1" layer="-1.00" shape="584.007658,1352.475170 591.346612,1352.626468 591.559495,1342.256201 584.220539,1342.104904 584.007658,1352.475170"/>
    <poly id="347065429" type="building.yes" color="255,230,230" fill="1" layer="-1.00" shape="517.785725,1259.077536 524.950978,1259.227065 525.188487,1247.484395 518.023120,1247.345935 517.785725,1259.077536"/>
    <poly id="347065431" type="building.yes" color="255,230,230" fill="1" layer="-1.00" shape="591.084726,1272.854813 598.250090,1272.993293 598.499157,1261.184315 591.333901,1261.034767 591.084726,1272.854813"/>
    <poly id="347065434" type="building.yes" color="255,230,230" fill="1" layer="-1.00" shape="409.299999,1315.970596 420.975674,1313.552963 419.172448,1304.977890 407.507628,1307.395633 409.299999,1315.970596"/>
    <poly id="347065438" type="building.yes" color="255,230,230" fill="1" layer="-1.00" shape="576.211011,1298.497880 583.560836,1298.649283 583.750834,1289.474325 576.401007,1289.322923 576.211011,1298.497880"/>
    <poly id="347065440" type="building.yes" color="255,230,230" fill="1" layer="-1.00" shape="761.594269,1256.094581 767.880176,1256.224254 768.130205,1244.326714 761.833326,1244.208001 761.594269,1256.094581"/>
    <poly id="347065462" type="building.yes" color="255,230,230" fill="1" layer="-1.00" shape="762.171476,1271.033575 769.836189,1271.188194 770.052364,1260.496924 762.387648,1260.342305 762.171476,1271.033575"/>
    <poly id="347065464" type="building.yes" color="255,230,230" fill="1" layer="-1.00" shape="411.615828,1376.180329 422.960210,1376.471471 423.211901,1366.555467 411.867404,1366.275394 411.615828,1376.180329"/>
    <poly id="347065467" type="building.yes" color="255,230,230" fill="1" layer="-1.00" shape="596.339295,1328.024223 605.578225,1328.205702 605.831641,1315.965044 596.581850,1315.783456 596.339295,1328.024223"/>
    <poly id="347065470" type="building.yes" color="255,230,230" fill="1" layer="-1.00" shape="446.284337,1270.635153 455.034684,1270.811667 455.157908,1265.034473 446.396701,1264.857850 446.284337,1270.635153"/>
    <poly id="347065479" type="building.yes" color="255,230,230" fill="1" layer="-1.00" shape="690.419881,1272.901976 697.650284,1273.052206 697.929182,1259.361652 690.698664,1259.222491 690.419881,1272.901976"/>
    <poly id="347065508" type="building.yes" color="255,230,230" fill="1" layer="-1.00" shape="585.763370,1371.167590 592.266396,1371.299413 592.525265,1358.516390 586.022236,1358.384568 585.763370,1371.167590"/>
    <poly id="347065510" type="building.yes" color="255,230,230" fill="1" layer="-1.00" shape="508.638423,1258.421011 515.553951,1258.568027 515.811996,1245.862491 508.896354,1245.726545 508.638423,1258.421011"/>
    <poly id="347065512" type="building.yes" color="255,230,230" fill="1" layer="-1.00" shape="389.229955,1307.643663 402.690281,1304.845445 400.866557,1296.148400 387.395370,1298.946511 389.229955,1307.643663"/>
    <poly id="347065516" type="building.yes" color="255,230,230" fill="1" layer="-1.00" shape="756.215705,1323.344958 767.126496,1323.565454 767.479442,1305.757665 756.579501,1305.537279 756.215705,1323.344958"/>
    <poly id="347065518" type="building.yes" color="255,230,230" fill="1" layer="-1.00" shape="464.846482,1326.347832 473.249370,1326.520863 473.382836,1319.725350 464.979947,1319.552319 464.846482,1326.347832"/>
    <poly id="347065522" type="building.yes" color="255,230,230" fill="1" layer="-1.00" shape="550.861849,1302.228099 559.775056,1302.406286 559.926302,1294.924620 551.013092,1294.746434 550.861849,1302.228099"/>
    <poly id="347065525" type="building.yes" color="255,230,230" fill="1" layer="-1.00" shape="743.718522,1257.398063 750.699317,1257.534724 750.936254,1245.858450 743.955456,1245.721789 743.718522,1257.398063"/>
    <poly id="347065538" type="building.yes" color="255,230,230" fill="1" layer="-1.00" shape="419.470982,1359.543896 428.890798,1360.092440 429.271644,1353.531881 419.862572,1352.994515 419.470982,1359.543896"/>
    <poly id="347065540" type="building.yes" color="255,230,230" fill="1" layer="-1.00" shape="772.473596,1369.503672 779.074349,1369.636521 779.377075,1354.662100 772.776319,1354.529251 772.473596,1369.503672"/>
    <poly id="347065542" type="building.yes" color="255,230,230" fill="1" layer="-1.00" shape="598.880982,1297.718516 608.445650,1297.903270 608.591342,1290.975036 599.026783,1290.779213 598.880982,1297.718516"/>
    <poly id="347065545" type="building.yes" color="255,230,230" fill="1" layer="-1.00" shape="500.235784,1272.262341 505.794328,1272.373573 506.015854,1261.139954 500.468165,1261.028832 500.235784,1272.262341"/>
    <poly id="347065550" type="building.yes" color="255,230,230" fill="1" layer="-1.00" shape="662.711026,1353.598902 670.343138,1353.753170 670.605382,1340.638081 662.973267,1340.483813 662.711026,1353.598902"/>
    <poly id="347065552" type="building.yes" color="255,230,230" fill="1" layer="-1.00" shape="564.351238,1258.748720 570.702282,1258.879003 570.940590,1247.058849 564.589432,1246.939635 564.351238,1258.748720"/>
    <poly id="347065553" type="building.yes" color="255,230,230" fill="1" layer="-1.00" shape="632.786141,1274.624742 640.885040,1274.794763 641.204997,1259.178480 633.105983,1259.019529 632.786141,1274.624742"/>
    <poly id="347065556" type="building.yes" color="255,230,230" fill="1" layer="-1.00" shape="517.942204,1356.914002 526.279940,1357.086395 526.554643,1343.805396 518.216903,1343.633003 517.942204,1356.914002"/>
    <poly id="347065557" type="building.yes" color="255,230,230" fill="1" layer="-1.00" shape="402.743318,1292.005021 415.844463,1289.291755 413.979090,1280.417174 400.888689,1283.141619 402.743318,1292.005021"/>
    <poly id="347065559" type="building.yes" color="255,230,230" fill="1" layer="-1.00" shape="743.580719,1326.129176 754.165780,1326.346390 754.469380,1311.283421 743.884313,1311.066208 743.580719,1326.129176"/>
    <poly id="347065562" type="building.yes" color="255,230,230" fill="1" layer="-1.00" shape="725.750853,1255.966386 732.525353,1256.100968 732.718738,1246.593941 725.944236,1246.459360 725.750853,1255.966386"/>
    <poly id="347065580" type="building.yes" color="255,230,230" fill="1" layer="-1.00" shape="523.326375,1307.408641 534.877644,1307.646554 535.240740,1289.894244 523.689464,1289.656332 523.326375,1307.408641"/>
    <poly id="347065582" type="building.yes" color="255,230,230" fill="1" layer="-1.00" shape="537.529290,1357.110951 543.478580,1357.237194 543.714213,1345.682689 537.764809,1345.567516 537.529290,1357.110951"/>
    <poly id="347065584" type="building.yes" color="255,230,230" fill="1" layer="-1.00" shape="746.079508,1363.769564 752.864840,1363.904265 753.034796,1355.647890 746.249462,1355.513190 746.079508,1363.769564"/>
    <poly id="347065585" type="building.yes" color="255,230,230" fill="1" layer="-1.00" shape="546.466488,1256.631667 552.926108,1256.763038 553.134074,1246.879796 546.674340,1246.759493 546.466488,1256.631667"/>
    <poly id="347065586" type="building.yes" color="255,230,230" fill="1" layer="-1.00" shape="575.558910,1370.898916 583.592632,1371.068270 583.720117,1364.870461 575.686393,1364.701107 575.558910,1370.898916"/>
    <poly id="347065588" type="building.yes" color="255,230,230" fill="1" layer="-1.00" shape="671.931387,1320.006220 679.031486,1320.155137 679.243843,1309.840207 672.132773,1309.702251 671.931387,1320.006220"/>
    <poly id="347065590" type="building.yes" color="255,230,230" fill="1" layer="-1.00" shape="490.170186,1275.459948 498.334334,1275.619513 498.512554,1266.533000 490.348514,1266.362367 490.170186,1275.459948"/>
    <poly id="347065591" type="building.yes" color="255,230,230" fill="1" layer="-1.00" shape="461.974424,1316.079400 474.730766,1316.340473 474.862452,1309.722058 462.106107,1309.460986 461.974424,1316.079400"/>
    <poly id="347065593" type="building.yes" color="255,230,230" fill="1" layer="-1.00" shape="550.720209,1293.636508 559.872286,1293.817097 560.002434,1287.353640 550.850354,1287.173052 550.720209,1293.636508"/>
    <poly id="347065595" type="building.yes" color="255,230,230" fill="1" layer="-1.00" shape="566.248557,1370.262864 574.358393,1370.421911 574.629670,1357.484037 566.519830,1357.324991 566.248557,1370.262864"/>
    <poly id="347065599" type="building.yes" color="255,230,230" fill="1" layer="-1.00" shape="644.554477,1370.950835 651.372375,1371.085838 651.656604,1356.863990 644.838702,1356.728987 644.554477,1370.950835"/>
    <poly id="347065602" type="building.yes" color="255,230,230" fill="1" layer="-1.00" shape="461.182502,1372.173164 471.637346,1372.377895 471.787570,1364.995850 461.332834,1364.780051 461.182502,1372.173164"/>
    <poly id="347065604" type="building.yes" color="255,230,230" fill="1" layer="-1.00" shape="691.215339,1368.686010 699.835378,1368.861296 700.086390,1356.864142 691.466347,1356.688856 691.215339,1368.686010"/>
    <poly id="347065606" type="building.yes" color="255,230,230" fill="1" layer="-1.00" shape="526.295257,1258.366067 533.623487,1258.506167 533.858440,1247.018076 526.519462,1246.866799 526.295257,1258.366067"/>
    <poly id="347065609" type="building.yes" color="255,230,230" fill="1" layer="-1.00" shape="607.838210,1257.890878 608.090731,1245.738770 601.489956,1245.605967 601.237438,1257.758074 607.838210,1257.890878"/>
    <poly id="347065614" type="building.yes" color="255,230,230" fill="1" layer="-1.00" shape="574.933687,1305.658268 581.979608,1305.795545 582.092893,1299.929687 575.057939,1299.781452 574.933687,1305.658268"/>
    <poly id="347065622" type="building.yes" color="255,230,230" fill="1" layer="-1.00" shape="509.645991,1372.051561 514.933076,1372.160070 516.279304,1372.184676 516.481415,1361.803235 516.519490,1360.176357 509.886063,1360.054312 509.858846,1361.681299 509.645991,1372.051561"/>
    <poly id="347065625" type="building.yes" color="255,230,230" fill="1" layer="-1.00" shape="662.197700,1256.743957 670.405293,1256.904008 670.665079,1244.032431 662.457593,1243.861311 662.197700,1256.743957"/>
    <poly id="347065627" type="building.yes" color="255,230,230" fill="1" layer="-1.00" shape="731.709614,1327.459870 739.081154,1327.611534 739.055037,1329.127836 741.866825,1329.189339 742.724465,1329.209039 743.090927,1311.135714 739.725399,1311.068639 739.682299,1313.193610 732.603800,1313.055966 732.006631,1313.049957 731.709614,1327.459870"/>
    <poly id="347065633" type="building.yes" color="255,230,230" fill="1" layer="-1.00" shape="771.740789,1269.679725 777.125621,1269.789264 777.363016,1258.068713 771.978181,1257.959175 771.740789,1269.679725"/>
    <poly id="347065640" type="building.yes" color="255,230,230" fill="1" layer="-1.00" shape="459.927761,1279.871665 471.761335,1280.112388 471.912889,1272.597520 460.079312,1272.356798 459.927761,1279.871665"/>
    <poly id="347065642" type="building.yes" color="255,230,230" fill="1" layer="-1.00" shape="501.403574,1328.918240 510.457919,1329.097832 510.807251,1311.633201 501.763759,1311.453719 501.403574,1328.918240"/>
    <poly id="347065645" type="building.yes" color="255,230,230" fill="1" layer="-1.00" shape="528.022607,1356.561497 535.795860,1356.717148 536.049360,1344.465426 528.276103,1344.309776 528.022607,1356.561497"/>
    <poly id="347065646" type="building.yes" color="255,230,230" fill="1" layer="-1.00" shape="414.050951,1327.287394 426.542832,1324.689781 424.532025,1315.160618 412.051109,1317.747273 414.050951,1327.287394"/>
    <poly id="347065648" type="building.yes" color="255,230,230" fill="1" layer="-1.00" shape="744.817323,1352.155693 750.679873,1352.270037 750.870931,1342.995451 745.008380,1342.881108 744.817323,1352.155693"/>