<?xml version="1.0" encoding="UTF-8"?>

<!-- generated on Fri Apr 30 12:24:51 2021 by Eclipse SUMO duarouter Version 1.8.0
<configuration xmlns:xsi="http://www.w3.org/2001/XMLSchema-instance" xsi:noNamespaceSchemaLocation="http://sumo.dlr.de/xsd/duarouterConfiguration.xsd">

    <input>
        <net-file value="/usr/local/Cellar/sumo/1.8.0/share/sumo/tools/2021-04-30-12-24-40/osm.net.xml"/>
        <route-files value="/usr/local/Cellar/sumo/1.8.0/share/sumo/tools/2021-04-30-12-24-40/osm.passenger.trips.xml"/>
    </input>

    <output>
        <output-file value="/usr/local/Cellar/sumo/1.8.0/share/sumo/tools/2021-04-30-12-24-40/osm.passenger.trips.xml.tmp"/>
        <write-trips value="true"/>
    </output>

    <time>
        <begin value="0"/>
        <end value="3600"/>
    </time>

    <report>
        <no-warnings value="true"/>
        <ignore-errors value="true"/>
        <no-step-log value="true"/>
    </report>

</configuration>
-->

<routes xmlns:xsi="http://www.w3.org/2001/XMLSchema-instance" xsi:noNamespaceSchemaLocation="http://sumo.dlr.de/xsd/routes_file.xsd">
    <vType id="veh_passenger" vClass="passenger"/>
    <trip id="veh0" type="veh_passenger" depart="0.00" departLane="best" from="655019293#2" to="-118416394#0"/>
    <trip id="veh1" type="veh_passenger" depart="8.49" departLane="best" departSpeed="max" from="249195004#0" to="118416394#0"/>
    <trip id="veh2" type="veh_passenger" depart="16.97" departLane="best" departSpeed="max" from="660054260#0" to="655019293#0"/>
    <trip id="veh3" type="veh_passenger" depart="25.46" departLane="best" departSpeed="max" from="92194630#0" to="-655019293#1"/>
    <trip id="veh4" type="veh_passenger" depart="33.94" departLane="best" departSpeed="max" from="462900086#0" to="-118416394#1"/>
    <trip id="veh5" type="veh_passenger" depart="42.43" departLane="best" from="118416392" to="462900086#3"/>
    <trip id="veh6" type="veh_passenger" depart="50.92" departLane="best" from="780935947" to="-118416391"/>
    <trip id="veh7" type="veh_passenger" depart="59.40" departLane="best" from="780935947" to="655019293#2"/>
    <trip id="veh8" type="veh_passenger" depart="67.89" departLane="best" from="92194630#1" to="328774394"/>
    <trip id="veh10" type="veh_passenger" depart="84.86" departLane="best" from="462900086#5" to="92194639"/>
    <trip id="veh11" type="veh_passenger" depart="93.35" departLane="best" from="799716355" to="55675974#1"/>
    <trip id="veh12" type="veh_passenger" depart="101.83" departLane="best" departSpeed="max" from="660054260#0" to="-55675976#1"/>
    <trip id="veh13" type="veh_passenger" depart="110.32" departLane="best" from="118416394#0" to="328774394"/>
    <trip id="veh14" type="veh_passenger" depart="118.80" departLane="best" from="-655019293#3" to="328774394"/>
    <trip id="veh15" type="veh_passenger" depart="127.29" departLane="best" from="655019293#3" to="55675974#1"/>
    <trip id="veh16" type="veh_passenger" depart="135.78" departLane="best" from="-799678234" to="458798178#1"/>
    <trip id="veh17" type="veh_passenger" depart="144.26" departLane="best" from="92194630#3" to="55675974#1"/>
    <trip id="veh18" type="veh_passenger" depart="152.75" departLane="best" departSpeed="max" from="249195004#0" to="328774394"/>
    <trip id="veh19" type="veh_passenger" depart="161.23" departLane="best" from="118416391" to="92194639"/>
    <trip id="veh20" type="veh_passenger" depart="169.72" departLane="best" departSpeed="max" from="92194630#0" to="328774394"/>
    <trip id="veh21" type="veh_passenger" depart="178.20" departLane="best" departSpeed="max" from="660054260#0" to="458798178#2"/>
    <trip id="veh22" type="veh_passenger" depart="186.69" departLane="best" departSpeed="max" from="92194630#0" to="458798178#2"/>
    <trip id="veh23" type="veh_passenger" depart="195.18" departLane="best" departSpeed="max" from="249195004#0" to="249195004#0"/>
    <trip id="veh24" type="veh_passenger" depart="203.66" departLane="best" from="-760110506#0" to="55675974#1"/>
    <trip id="veh26" type="veh_passenger" depart="220.63" departLane="best" departSpeed="max" from="660054260#0" to="462900086#5"/>
    <trip id="veh27" type="veh_passenger" depart="229.12" departLane="best" departSpeed="max" from="249195004#0" to="55675974#1"/>
    <trip id="veh28" type="veh_passenger" depart="237.61" departLane="best" from="-760110506#0" to="458798178#2"/>
    <trip id="veh29" type="veh_passenger" depart="246.09" departLane="best" departSpeed="max" from="462900086#0" to="92194639"/>
    <trip id="veh30" type="veh_passenger" depart="254.58" departLane="best" departSpeed="max" from="92194630#0" to="328774394"/>
    <trip id="veh31" type="veh_passenger" depart="263.06" departLane="best" departSpeed="max" from="92194630#0" to="92194630#1"/>
    <trip id="veh32" type="veh_passenger" depart="271.55" departLane="best" departSpeed="max" from="249195004#0" to="55675974#1"/>
    <trip id="veh33" type="veh_passenger" depart="280.04" departLane="best" from="-118416391" to="328774394"/>
    <trip id="veh34" type="veh_passenger" depart="288.52" departLane="best" from="-118416394#0" to="92194639"/>
    <trip id="veh35" type="veh_passenger" depart="297.01" departLane="best" departSpeed="max" from="92194630#0" to="799716358#0"/>
    <trip id="veh36" type="veh_passenger" depart="305.49" departLane="best" departSpeed="max" from="249195004#0" to="-55675976#2"/>
    <trip id="veh37" type="veh_passenger" depart="313.98" departLane="best" departSpeed="max" from="92194630#0" to="92194639"/>
    <trip id="veh38" type="veh_passenger" depart="322.47" departLane="best" departSpeed="max" from="462900086#0" to="55675974#0"/>
    <trip id="veh39" type="veh_passenger" depart="330.95" departLane="best" departSpeed="max" from="249195004#0" to="92194630#1"/>
    <trip id="veh40" type="veh_passenger" depart="339.44" departLane="best" departSpeed="max" from="462900086#0" to="118416392"/>
    <trip id="veh42" type="veh_passenger" depart="356.41" departLane="best" departSpeed="max" from="462900086#0" to="462900086#4"/>
    <trip id="veh43" type="veh_passenger" depart="364.90" departLane="best" departSpeed="max" from="249195004#0" to="55675974#1"/>
    <trip id="veh44" type="veh_passenger" depart="373.38" departLane="best" from="-655019292" to="55675974#1"/>
    <trip id="veh45" type="veh_passenger" depart="381.87" departLane="best" from="118416394#0" to="92194630#3"/>
    <trip id="veh46" type="veh_passenger" depart="390.35" departLane="best" departSpeed="max" from="92194630#0" to="-655019293#0"/>
    <trip id="veh47" type="veh_passenger" depart="398.84" departLane="best" from="118416394#1" to="655019292"/>
    <trip id="veh49" type="veh_passenger" depart="415.81" departLane="best" departSpeed="max" from="462900086#0" to="772140301"/>
    <trip id="veh50" type="veh_passenger" depart="424.30" departLane="best" from="-655019293#2" to="458798178#2"/>
    <trip id="veh51" type="veh_passenger" depart="432.78" departLane="best" departSpeed="max" from="462900086#0" to="458798178#2"/>
    <trip id="veh52" type="veh_passenger" depart="441.27" departLane="best" departSpeed="max" from="660054260#0" to="655019292"/>
    <trip id="veh55" type="veh_passenger" depart="466.73" departLane="best" from="-799716357" to="458798178#2"/>
    <trip id="veh56" type="veh_passenger" depart="475.21" departLane="best" from="118416394#2" to="92194639"/>
    <trip id="veh57" type="veh_passenger" depart="483.70" departLane="best" departSpeed="max" from="462900086#0" to="92194630#1"/>
    <trip id="veh58" type="veh_passenger" depart="492.18" departLane="best" from="92194630#2" to="92194639"/>
    <trip id="veh59" type="veh_passenger" depart="500.67" departLane="best" departSpeed="max" from="462900086#0" to="118416392"/>
    <trip id="veh62" type="veh_passenger" depart="526.13" departLane="best" departSpeed="max" from="249195004#0" to="772140301"/>
    <trip id="veh63" type="veh_passenger" depart="534.61" departLane="best" departSpeed="max" from="462900086#0" to="458798178#2"/>
    <trip id="veh64" type="veh_passenger" depart="543.10" departLane="best" from="92194630#1" to="92194639"/>
    <trip id="veh65" type="veh_passenger" depart="551.59" departLane="best" from="-780935947" to="328774394"/>
    <trip id="veh66" type="veh_passenger" depart="560.07" departLane="best" from="92194630#2" to="55675974#1"/>
    <trip id="veh67" type="veh_passenger" depart="568.56" departLane="best" from="-55675976#2" to="55675974#1"/>
    <trip id="veh69" type="veh_passenger" depart="585.53" departLane="best" from="-780935947" to="92194639"/>
    <trip id="veh70" type="veh_passenger" depart="594.02" departLane="best" from="55675976#1" to="655019292"/>
    <trip id="veh72" type="veh_passenger" depart="610.99" departLane="best" from="55675976#1" to="55675974#1"/>
    <trip id="veh73" type="veh_passenger" depart="619.47" departLane="best" departSpeed="max" from="462900086#0" to="55675974#1"/>
    <trip id="veh74" type="veh_passenger" depart="627.96" departLane="best" from="462900086#4" to="92194639"/>
    <trip id="veh75" type="veh_passenger" depart="636.45" departLane="best" from="118416394#1" to="458798178#2"/>
    <trip id="veh76" type="veh_passenger" depart="644.93" departLane="best" departSpeed="max" from="660054260#0" to="328774394"/>
    <trip id="veh77" type="veh_passenger" depart="653.42" departLane="best" departSpeed="max" from="249195004#0" to="760110506#0"/>
    <trip id="veh78" type="veh_passenger" depart="661.90" departLane="best" from="-655019293#0" to="458798178#2"/>
    <trip id="veh79" type="veh_passenger" depart="670.39" departLane="best" from="92194630#3" to="92194639"/>
    <trip id="veh80" type="veh_passenger" depart="678.88" departLane="best" departSpeed="max" from="92194630#0" to="92194630#2"/>
    <trip id="veh82" type="veh_passenger" depart="695.85" departLane="best" from="655019292" to="92194639"/>
    <trip id="veh83" type="veh_passenger" depart="704.33" departLane="best" departSpeed="max" from="660054260#0" to="-118416391"/>
    <trip id="veh84" type="veh_passenger" depart="712.82" departLane="best" from="799678234" to="328774394"/>
    <trip id="veh85" type="veh_passenger" depart="721.31" departLane="best" departSpeed="max" from="660054260#0" to="92194639"/>
    <trip id="veh86" type="veh_passenger" depart="729.79" departLane="best" departSpeed="max" from="249195004#0" to="55675974#1"/>
    <trip id="veh87" type="veh_passenger" depart="738.28" departLane="best" departSpeed="max" from="660054260#0" to="118416391"/>
    <trip id="veh88" type="veh_passenger" depart="746.76" departLane="best" from="655019293#2" to="328774394"/>
    <trip id="veh89" type="veh_passenger" depart="755.25" departLane="best" departSpeed="max" from="462900086#0" to="92194630#3"/>
    <trip id="veh90" type="veh_passenger" depart="763.73" departLane="best" departSpeed="max" from="462900086#0" to="-118416392"/>
    <trip id="veh91" type="veh_passenger" depart="772.22" departLane="best" departSpeed="max" from="92194630#0" to="55675974#0"/>
    <trip id="veh93" type="veh_passenger" depart="789.19" departLane="best" departSpeed="max" from="249195004#0" to="92194630#3"/>
    <trip id="veh94" type="veh_passenger" depart="797.68" departLane="best" departSpeed="max" from="92194630#0" to="118416391"/>
    <trip id="veh96" type="veh_passenger" depart="814.65" departLane="best" from="-780935947" to="92194639"/>
    <trip id="veh97" type="veh_passenger" depart="823.14" departLane="best" departSpeed="max" from="92194630#0" to="92194639"/>
    <trip id="veh98" type="veh_passenger" depart="831.62" departLane="best" from="780935947" to="92194630#2"/>
    <trip id="veh99" type="veh_passenger" depart="840.11" departLane="best" from="780935947" to="328774394"/>
    <trip id="veh100" type="veh_passenger" depart="848.59" departLane="best" departSpeed="max" from="92194630#0" to="92194630#0"/>
    <trip id="veh101" type="veh_passenger" depart="857.08" departLane="best" from="118416392" to="799716357"/>
    <trip id="veh102" type="veh_passenger" depart="865.57" departLane="best" departSpeed="max" from="249195004#0" to="92194630#1"/>
    <trip id="veh103" type="veh_passenger" depart="874.05" departLane="best" from="92194630#2" to="328774394"/>
    <trip id="veh104" type="veh_passenger" depart="882.54" departLane="best" from="655019293#2" to="458798178#2"/>
    <trip id="veh105" type="veh_passenger" depart="891.02" departLane="best" departSpeed="max" from="92194630#0" to="-760110506#1"/>
    <trip id="veh106" type="veh_passenger" depart="899.51" departLane="best" from="92194630#1" to="328774394"/>
    <trip id="veh107" type="veh_passenger" depart="908.00" departLane="best" from="-760110506#0" to="458798178#2"/>
    <trip id="veh108" type="veh_passenger" depart="916.48" departLane="best" departSpeed="max" from="660054260#0" to="328774394"/>
    <trip id="veh110" type="veh_passenger" depart="933.45" departLane="best" departSpeed="max" from="249195004#0" to="655019293#3"/>
    <trip id="veh111" type="veh_passenger" depart="941.94" departLane="best" from="-118416391" to="92194639"/>
    <trip id="veh112" type="veh_passenger" depart="950.43" departLane="best" departSpeed="max" from="660054260#0" to="328774394"/>
    <trip id="veh114" type="veh_passenger" depart="967.40" departLane="best" departSpeed="max" from="660054260#0" to="328774394"/>
    <trip id="veh115" type="veh_passenger" depart="975.88" departLane="best" departSpeed="max" from="249195004#0" to="458798178#2"/>
    <trip id="veh117" type="veh_passenger" depart="992.86" departLane="best" from="-760110507" to="458798178#2"/>
    <trip id="veh118" type="veh_passenger" depart="1001.34" departLane="best" departSpeed="max" from="92194630#0" to="655019293#0"/>
    <trip id="veh119" type="veh_passenger" depart="1009.83" departLane="best" departSpeed="max" from="249195004#0" to="55675974#0"/>
    <trip id="veh120" type="veh_passenger" depart="1018.31" departLane="best" from="-118416391" to="328774394"/>
    <trip id="veh121" type="veh_passenger" depart="1026.80" departLane="best" departSpeed="max" from="462900086#0" to="55675974#1"/>
    <trip id="veh122" type="veh_passenger" depart="1035.29" departLane="best" departSpeed="max" from="660054260#0" to="458798178#2"/>
    <trip id="veh123" type="veh_passenger" depart="1043.77" departLane="best" departSpeed="max" from="462900086#0" to="118416392"/>
    <trip id="veh124" type="veh_passenger" depart="1052.26" departLane="best" departSpeed="max" from="462900086#0" to="92194630#3"/>
    <trip id="veh125" type="veh_passenger" depart="1060.74" departLane="best" from="655019293#1" to="328774394"/>
    <trip id="veh126" type="veh_passenger" depart="1069.23" departLane="best" departSpeed="max" from="660054260#0" to="118416394#0"/>
    <trip id="veh128" type="veh_passenger" depart="1086.20" departLane="best" departSpeed="max" from="462900086#0" to="55675974#1"/>
    <trip id="veh129" type="veh_passenger" depart="1094.69" departLane="best" departSpeed="max" from="462900086#0" to="118416394#2"/>
    <trip id="veh130" type="veh_passenger" depart="1103.17" departLane="best" departSpeed="max" from="660054260#0" to="-118416391"/>
    <trip id="veh131" type="veh_passenger" depart="1111.66" departLane="best" from="-655019293#3" to="458798178#2"/>
    <trip id="veh132" type="veh_passenger" depart="1120.14" departLane="best" from="-799716355" to="92194639"/>
    <trip id="veh133" type="veh_passenger" depart="1128.63" departLane="best" departSpeed="max" from="462900086#0" to="799678234"/>
    <trip id="veh134" type="veh_passenger" depart="1137.12" departLane="best" departSpeed="max" from="660054260#0" to="92194639"/>
    <trip id="veh135" type="veh_passenger" depart="1145.60" departLane="best" from="55675976#1" to="92194639"/>
    <trip id="veh136" type="veh_passenger" depart="1154.09" departLane="best" departSpeed="max" from="660054260#0" to="462900086#3"/>
    <trip id="veh139" type="veh_passenger" depart="1179.55" departLane="best" from="118416394#2" to="55675974#1"/>
    <trip id="veh140" type="veh_passenger" depart="1188.03" departLane="best" from="655019293#1" to="328774394"/>
    <trip id="veh141" type="veh_passenger" depart="1196.52" departLane="best" from="-655019293#0" to="328774394"/>
    <trip id="veh142" type="veh_passenger" depart="1205.00" departLane="best" departSpeed="max" from="249195004#0" to="328774394"/>
    <trip id="veh143" type="veh_passenger" depart="1213.49" departLane="best" departSpeed="max" from="660054260#0" to="-655019292"/>
    <trip id="veh144" type="veh_passenger" depart="1221.98" departLane="best" departSpeed="max" from="462900086#0" to="118416391"/>
    <trip id="veh145" type="veh_passenger" depart="1230.46" departLane="best" departSpeed="max" from="462900086#0" to="92194630#3"/>
    <trip id="veh148" type="veh_passenger" depart="1255.92" departLane="best" departSpeed="max" from="462900086#0" to="760110506#0"/>
    <trip id="veh149" type="veh_passenger" depart="1264.41" departLane="best" from="462900086#5" to="55675974#1"/>
    <trip id="veh150" type="veh_passenger" depart="1272.89" departLane="best" from="118416392" to="118416394#0"/>
    <trip id="veh151" type="veh_passenger" depart="1281.38" departLane="best" departSpeed="max" from="462900086#0" to="-118416394#1"/>
    <trip id="veh152" type="veh_passenger" depart="1289.86" departLane="best" departSpeed="max" from="249195004#0" to="655019293#0"/>
    <trip id="veh153" type="veh_passenger" depart="1298.35" departLane="best" departSpeed="max" from="462900086#0" to="-760110507"/>
    <trip id="veh155" type="veh_passenger" depart="1315.32" departLane="best" from="-118416394#1" to="55675974#1"/>
    <trip id="veh157" type="veh_passenger" depart="1332.29" departLane="best" from="-55675976#1" to="458798178#1"/>
    <trip id="veh158" type="veh_passenger" depart="1340.78" departLane="best" from="118416391" to="328774394"/>
    <trip id="veh159" type="veh_passenger" depart="1349.27" departLane="best" departSpeed="max" from="249195004#0" to="-655019293#1"/>
    <trip id="veh160" type="veh_passenger" depart="1357.75" departLane="best" from="92194630#3" to="328774394"/>
    <trip id="veh162" type="veh_passenger" depart="1374.72" departLane="best" departSpeed="max" from="660054260#0" to="760110507"/>
    <trip id="veh163" type="veh_passenger" depart="1383.21" departLane="best" from="-799678234" to="55675974#1"/>
    <trip id="veh164" type="veh_passenger" depart="1391.69" departLane="best" from="799678234" to="92194639"/>
    <trip id="veh165" type="veh_passenger" depart="1400.18" departLane="best" from="-760110506#0" to="-118416394#0"/>
    <trip id="veh166" type="veh_passenger" depart="1408.67" departLane="best" departSpeed="max" from="249195004#0" to="655019293#0"/>
    <trip id="veh167" type="veh_passenger" depart="1417.15" departLane="best" from="92194630#1" to="458798178#2"/>
    <trip id="veh168" type="veh_passenger" depart="1425.64" departLane="best" departSpeed="max" from="660054260#0" to="-655019293#0"/>
    <trip id="veh169" type="veh_passenger" depart="1434.12" departLane="best" departSpeed="max" from="660054260#0" to="55675974#1"/>
    <trip id="veh172" type="veh_passenger" depart="1459.58" departLane="best" from="-760110506#1" to="92194639"/>
    <trip id="veh173" type="veh_passenger" depart="1468.07" departLane="best" from="760110507" to="328774394"/>
    <trip id="veh174" type="veh_passenger" depart="1476.55" departLane="best" departSpeed="max" from="462900086#0" to="458798178#1"/>
    <trip id="veh175" type="veh_passenger" depart="1485.04" departLane="best" from="462900086#3" to="328774394"/>
    <trip id="veh176" type="veh_passenger" depart="1493.53" departLane="best" from="-655019293#3" to="92194639"/>
    <trip id="veh177" type="veh_passenger" depart="1502.01" departLane="best" departSpeed="max" from="660054260#0" to="458798178#2"/>
    <trip id="veh178" type="veh_passenger" depart="1510.50" departLane="best" departSpeed="max" from="660054260#0" to="92194639"/>
    <trip id="veh179" type="veh_passenger" depart="1518.98" departLane="best" departSpeed="max" from="249195004#0" to="799716355"/>
    <trip id="veh182" type="veh_passenger" depart="1544.44" departLane="best" departSpeed="max" from="92194630#0" to="118416394#2"/>
    <trip id="veh183" type="veh_passenger" depart="1552.93" departLane="best" departSpeed="max" from="462900086#0" to="55675974#1"/>
    <trip id="veh185" type="veh_passenger" depart="1569.90" departLane="best" departSpeed="max" from="660054260#0" to="328774394"/>
    <trip id="veh186" type="veh_passenger" depart="1578.39" departLane="best" from="-118416392" to="92194639"/>
    <trip id="veh187" type="veh_passenger" depart="1586.87" departLane="best" departSpeed="max" from="462900086#0" to="760110506#1"/>
    <trip id="veh188" type="veh_passenger" depart="1595.36" departLane="best" departSpeed="max" from="660054260#0" to="55675974#1"/>
    <trip id="veh190" type="veh_passenger" depart="1612.33" departLane="best" departSpeed="max" from="660054260#0" to="328774394"/>
    <trip id="veh192" type="veh_passenger" depart="1629.30" departLane="best" from="462900086#4" to="458798178#2"/>
    <trip id="veh193" type="veh_passenger" depart="1637.79" departLane="best" from="660054260#1" to="328774394"/>
    <trip id="veh194" type="veh_passenger" depart="1646.27" departLane="best" departSpeed="max" from="660054260#0" to="328774394"/>
    <trip id="veh195" type="veh_passenger" depart="1654.76" departLane="best" departSpeed="max" from="249195004#0" to="-760110506#1"/>
    <trip id="veh197" type="veh_passenger" depart="1671.73" departLane="best" departSpeed="max" from="249195004#0" to="-655019293#3"/>
    <trip id="veh199" type="veh_passenger" depart="1688.70" departLane="best" from="462900086#4" to="328774394"/>
    <trip id="veh200" type="veh_passenger" depart="1697.19" departLane="best" departSpeed="max" from="660054260#0" to="-760110507"/>
    <trip id="veh202" type="veh_passenger" depart="1714.16" departLane="best" departSpeed="max" from="462900086#0" to="458798178#2"/>
    <trip id="veh204" type="veh_passenger" depart="1731.13" departLane="best" from="799716355" to="458798178#2"/>
    <trip id="veh205" type="veh_passenger" depart="1739.62" departLane="best" from="-655019293#0" to="55675974#1"/>
    <trip id="veh207" type="veh_passenger" depart="1756.59" departLane="best" from="55675974#0" to="328774394"/>
    <trip id="veh208" type="veh_passenger" depart="1765.08" departLane="best" from="760110506#0" to="55675974#1"/>
    <trip id="veh209" type="veh_passenger" depart="1773.56" departLane="best" from="462900086#4" to="458798178#2"/>
    <trip id="veh210" type="veh_passenger" depart="1782.05" departLane="best" departSpeed="max" from="462900086#0" to="92194630#1"/>
    <trip id="veh211" type="veh_passenger" depart="1790.53" departLane="best" from="92194630#3" to="328774394"/>
    <trip id="veh212" type="veh_passenger" depart="1799.02" departLane="best" from="655019293#0" to="55675974#1"/>
    <trip id="veh213" type="veh_passenger" depart="1807.51" departLane="best" departSpeed="max" from="660054260#0" to="92194639"/>
    <trip id="veh214" type="veh_passenger" depart="1815.99" departLane="best" from="118416391" to="118416392"/>
    <trip id="veh215" type="veh_passenger" depart="1824.48" departLane="best" departSpeed="max" from="660054260#0" to="-780935947"/>
    <trip id="veh216" type="veh_passenger" depart="1832.96" departLane="best" from="-118416391" to="458798178#2"/>
    <trip id="veh217" type="veh_passenger" depart="1841.45" departLane="best" from="55675976#1" to="328774394"/>
    <trip id="veh218" type="veh_passenger" depart="1849.94" departLane="best" departSpeed="max" from="660054260#0" to="458798178#2"/>
    <trip id="veh219" type="veh_passenger" depart="1858.42" departLane="best" departSpeed="max" from="660054260#0" to="92194639"/>
    <trip id="veh221" type="veh_passenger" depart="1875.39" departLane="best" departSpeed="max" from="660054260#0" to="92194639"/>
    <trip id="veh222" type="veh_passenger" depart="1883.88" departLane="best" departSpeed="max" from="462900086#0" to="55675974#0"/>
    <trip id="veh223" type="veh_passenger" depart="1892.37" departLane="best" from="-799678234" to="328774394"/>
    <trip id="veh224" type="veh_passenger" depart="1900.85" departLane="best" from="660054260#1" to="55675974#1"/>
    <trip id="veh225" type="veh_passenger" depart="1909.34" departLane="best" departSpeed="max" from="249195004#0" to="-760110507"/>
    <trip id="veh226" type="veh_passenger" depart="1917.82" departLane="best" departSpeed="max" from="660054260#0" to="655019293#2"/>
    <trip id="veh227" type="veh_passenger" depart="1926.31" departLane="best" departSpeed="max" from="92194630#0" to="462900086#3"/>
    <trip id="veh228" type="veh_passenger" depart="1934.80" departLane="best" departSpeed="max" from="462900086#0" to="-655019293#1"/>
    <trip id="veh229" type="veh_passenger" depart="1943.28" departLane="best" from="-118416394#2" to="458798178#2"/>
    <trip id="veh230" type="veh_passenger" depart="1951.77" departLane="best" departSpeed="max" from="249195004#0" to="249195004#0"/>
    <trip id="veh231" type="veh_passenger" depart="1960.25" departLane="best" from="-655019293#2" to="92194639"/>
    <trip id="veh233" type="veh_passenger" depart="1977.22" departLane="best" from="92194630#1" to="92194639"/>
    <trip id="veh234" type="veh_passenger" depart="1985.71" departLane="best" departSpeed="max" from="660054260#0" to="328774394"/>
    <trip id="veh235" type="veh_passenger" depart="1994.20" departLane="best" departSpeed="max" from="462900086#0" to="55675976#1"/>
    <trip id="veh236" type="veh_passenger" depart="2002.68" departLane="best" departSpeed="max" from="92194630#0" to="-799716356"/>
    <trip id="veh237" type="veh_passenger" depart="2011.17" departLane="best" from="55675974#1" to="55675974#1"/>
    <trip id="veh238" type="veh_passenger" depart="2019.65" departLane="best" departSpeed="max" from="462900086#0" to="-655019293#2"/>
    <trip id="veh239" type="veh_passenger" depart="2028.14" departLane="best" from="328774394" to="328774394"/>
    <trip id="veh241" type="veh_passenger" depart="2045.11" departLane="best" departSpeed="max" from="249195004#0" to="655019293#2"/>
    <trip id="veh242" type="veh_passenger" depart="2053.60" departLane="best" from="462900086#5" to="458798178#2"/>
    <trip id="veh243" type="veh_passenger" depart="2062.08" departLane="best" from="660054260#1" to="55675974#1"/>
    <trip id="veh244" type="veh_passenger" depart="2070.57" departLane="best" from="462900086#5" to="92194639"/>
    <trip id="veh245" type="veh_passenger" depart="2079.06" departLane="best" departSpeed="max" from="462900086#0" to="655019293#2"/>
    <trip id="veh246" type="veh_passenger" depart="2087.54" departLane="best" from="-760110506#1" to="92194639"/>
    <trip id="veh247" type="veh_passenger" depart="2096.03" departLane="best" from="92194630#3" to="92194639"/>
    <trip id="veh248" type="veh_passenger" depart="2104.51" departLane="best" departSpeed="max" from="462900086#0" to="-760110506#1"/>
    <trip id="veh249" type="veh_passenger" depart="2113.00" departLane="best" departSpeed="max" from="660054260#0" to="462900086#4"/>
    <trip id="veh250" type="veh_passenger" depart="2121.49" departLane="best" departSpeed="max" from="249195004#0" to="799716358#1"/>
    <trip id="veh251" type="veh_passenger" depart="2129.97" departLane="best" departSpeed="max" from="92194630#0" to="462900086#3"/>
    <trip id="veh252" type="veh_passenger" depart="2138.46" departLane="best" departSpeed="max" from="92194630#0" to="92194630#1"/>
    <trip id="veh254" type="veh_passenger" depart="2155.43" departLane="best" departSpeed="max" from="462900086#0" to="92194639"/>
    <trip id="veh255" type="veh_passenger" depart="2163.92" departLane="best" departSpeed="max" from="249195004#0" to="328774394"/>
    <trip id="veh257" type="veh_passenger" depart="2180.89" departLane="best" departSpeed="max" from="462900086#0" to="-772140301"/>
    <trip id="veh258" type="veh_passenger" depart="2189.37" departLane="best" from="462900086#5" to="328774394"/>
    <trip id="veh259" type="veh_passenger" depart="2197.86" departLane="best" from="660054260#1" to="655019293#3"/>
    <trip id="veh260" type="veh_passenger" depart="2206.35" departLane="best" from="780935947" to="458798178#2"/>
    <trip id="veh261" type="veh_passenger" depart="2214.83" departLane="best" departSpeed="max" from="660054260#0" to="799716357"/>
    <trip id="veh262" type="veh_passenger" depart="2223.32" departLane="best" departSpeed="max" from="92194630#0" to="458798178#2"/>
    <trip id="veh263" type="veh_passenger" depart="2231.80" departLane="best" from="462900086#4" to="458798178#2"/>
    <trip id="veh264" type="veh_passenger" depart="2240.29" departLane="best" departSpeed="max" from="660054260#0" to="458798178#2"/>
    <trip id="veh265" type="veh_passenger" depart="2248.78" departLane="best" departSpeed="max" from="660054260#0" to="-780935947"/>
    <trip id="veh266" type="veh_passenger" depart="2257.26" departLane="best" departSpeed="max" from="462900086#0" to="92194639"/>
    <trip id="veh267" type="veh_passenger" depart="2265.75" departLane="best" departSpeed="max" from="249195004#0" to="655019293#1"/>
    <trip id="veh269" type="veh_passenger" depart="2282.72" departLane="best" departSpeed="max" from="660054260#0" to="760110506#1"/>
    <trip id="veh270" type="veh_passenger" depart="2291.20" departLane="best" departSpeed="max" from="92194630#0" to="-118416394#2"/>
    <trip id="veh271" type="veh_passenger" depart="2299.69" departLane="best" from="-655019292" to="55675974#1"/>
    <trip id="veh272" type="veh_passenger" depart="2308.18" departLane="best" departSpeed="max" from="92194630#0" to="92194639"/>
    <trip id="veh273" type="veh_passenger" depart="2316.66" departLane="best" from="660054260#1" to="458798178#2"/>
    <trip id="veh274" type="veh_passenger" depart="2325.15" departLane="best" from="-655019293#3" to="55675974#1"/>