<?xml version="1.0" encoding="UTF-8"?>

<!-- generated on Fri Apr 30 12:38:14 2021 by Eclipse SUMO netconvert Version 1.8.0
<configuration xmlns:xsi="http://www.w3.org/2001/XMLSchema-instance" xsi:noNamespaceSchemaLocation="http://sumo.dlr.de/xsd/netconvertConfiguration.xsd">

    <input>
        <type-files value="/usr/local/opt/sumo/share/sumo/data/typemap/osmNetconvert.typ.xml"/>
        <osm-files value="osm_bbox.osm.xml"/>
    </input>

    <output>
        <output-file value="osm.net.xml"/>
        <output.street-names value="true"/>
        <output.original-names value="true"/>
    </output>

    <projection>
        <proj.utm value="true"/>
    </projection>

    <processing>
        <geometry.remove value="true"/>
        <roundabouts.guess value="true"/>
        <lefthand value="true"/>
    </processing>

    <tls_building>
        <tls.discard-simple value="true"/>
        <tls.join value="true"/>
        <tls.guess-signals value="true"/>
        <tls.default-type value="actuated"/>
    </tls_building>

    <ramp_guessing>
        <ramps.guess value="true"/>
    </ramp_guessing>

    <edge_removal>
        <keep-edges.by-vclass value="passenger"/>
    </edge_removal>

    <junctions>
        <junctions.join value="true"/>
        <junctions.corner-detail value="5"/>
    </junctions>

    <report>
        <verbose value="true"/>
        <aggregate-warnings value="5"/>
    </report>

</configuration>
-->

<net version="1.6" junctionCornerDetail="5" lefthand="true" limitTurnSpeed="5.50" xmlns:xsi="http://www.w3.org/2001/XMLSchema-instance" xsi:noNamespaceSchemaLocation="http://sumo.dlr.de/xsd/net_file.xsd">

    <location netOffset="-776096.49,-1424803.84" convBoundary="0.00,-0.00,4462.04,4637.10" origBoundary="77.544030,12.876128,77.585429,12.917733" projParameter="+proj=utm +zone=43 +ellps=WGS84 +datum=WGS84 +units=m +no_defs"/>

    <type id="highway.bridleway" priority="1" numLanes="1" speed="2.78" allow="pedestrian" oneway="1" width="2.00"/>
    <type id="highway.bus_guideway" priority="1" numLanes="1" speed="27.78" allow="bus" oneway="1"/>
    <type id="highway.cycleway" priority="1" numLanes="1" speed="8.33" allow="bicycle" oneway="0" width="1.00"/>
    <type id="highway.footway" priority="1" numLanes="1" speed="2.78" allow="pedestrian" oneway="1" width="2.00"/>
    <type id="highway.ford" priority="1" numLanes="1" speed="2.78" allow="army" oneway="0"/>
    <type id="highway.living_street" priority="2" numLanes="1" speed="2.78" disallow="tram rail_urban rail rail_electric rail_fast ship" oneway="0"/>
    <type id="highway.motorway" priority="14" numLanes="2" speed="39.44" allow="private emergency authority army vip passenger hov taxi bus coach delivery truck trailer motorcycle evehicle custom1 custom2" oneway="1"/>
    <type id="highway.motorway_link" priority="9" numLanes="1" speed="22.22" allow="private emergency authority army vip passenger hov taxi bus coach delivery truck trailer motorcycle evehicle custom1 custom2" oneway="1"/>
    <type id="highway.path" priority="1" numLanes="1" speed="2.78" allow="pedestrian bicycle" oneway="0" width="2.00"/>
    <type id="highway.pedestrian" priority="1" numLanes="1" speed="2.78" allow="pedestrian" oneway="1" width="2.00"/>
    <type id="highway.primary" priority="12" numLanes="2" speed="27.78" disallow="tram rail_urban rail rail_electric rail_fast ship" oneway="0"/>
    <type id="highway.primary_link" priority="7" numLanes="1" speed="22.22" disallow="tram rail_urban rail rail_electric rail_fast ship" oneway="0"/>
    <type id="highway.raceway" priority="15" numLanes="2" speed="83.33" allow="vip" oneway="0"/>
    <type id="highway.residential" priority="3" numLanes="1" speed="13.89" disallow="tram rail_urban rail rail_electric rail_fast ship" oneway="0"/>
    <type id="highway.secondary" priority="11" numLanes="1" speed="27.78" disallow="tram rail_urban rail rail_electric rail_fast ship" oneway="0"/>
    <type id="highway.secondary_link" priority="6" numLanes="1" speed="22.22" disallow="tram rail_urban rail rail_electric rail_fast ship" oneway="0"/>
    <type id="highway.service" priority="1" numLanes="1" speed="5.56" allow="pedestrian delivery bicycle" oneway="0"/>
    <type id="highway.stairs" priority="1" numLanes="1" speed="1.39" allow="pedestrian" oneway="1" width="2.00"/>
    <type id="highway.step" priority="1" numLanes="1" speed="1.39" allow="pedestrian" oneway="1" width="2.00"/>
    <type id="highway.steps" priority="1" numLanes="1" speed="1.39" allow="pedestrian" oneway="1" width="2.00"/>
    <type id="highway.tertiary" priority="10" numLanes="1" speed="22.22" disallow="tram rail_urban rail rail_electric rail_fast ship" oneway="0"/>
    <type id="highway.tertiary_link" priority="5" numLanes="1" speed="22.22" disallow="tram rail_urban rail rail_electric rail_fast ship" oneway="0"/>
    <type id="highway.track" priority="1" numLanes="1" speed="5.56" allow="pedestrian motorcycle moped bicycle" oneway="0"/>
    <type id="highway.trunk" priority="13" numLanes="2" speed="27.78" disallow="pedestrian bicycle tram rail_urban rail rail_electric rail_fast ship" oneway="0"/>
    <type id="highway.trunk_link" priority="8" numLanes="1" speed="22.22" disallow="pedestrian bicycle tram rail_urban rail rail_electric rail_fast ship" oneway="0"/>
    <type id="highway.unclassified" priority="4" numLanes="1" speed="13.89" disallow="tram rail_urban rail rail_electric rail_fast ship" oneway="0"/>
    <type id="highway.unsurfaced" priority="1" numLanes="1" speed="8.33" disallow="tram rail_urban rail rail_electric rail_fast ship" oneway="0"/>
    <type id="railway.highspeed" priority="21" numLanes="1" speed="69.44" allow="rail_fast" oneway="1"/>
    <type id="railway.light_rail" priority="19" numLanes="1" speed="27.78" allow="rail_urban" oneway="1"/>
    <type id="railway.preserved" priority="16" numLanes="1" speed="27.78" allow="rail" oneway="1"/>
    <type id="railway.rail" priority="20" numLanes="1" speed="44.44" allow="rail" oneway="1"/>
    <type id="railway.subway" priority="18" numLanes="1" speed="27.78" allow="rail_urban" oneway="1"/>
    <type id="railway.tram" priority="17" numLanes="1" speed="13.89" allow="tram" oneway="1"/>

    <edge id=":1331989765_0" function="internal">
        <lane id=":1331989765_0_0" index="0" disallow="tram rail_urban rail rail_electric rail_fast ship" speed="3.65" length="4.67" shape="4200.16,3323.11 4201.35,3322.30 4201.74,3321.49 4201.33,3320.70 4200.12,3319.91"/>
    </edge>
    <edge id=":1331989773_0" function="internal">
        <lane id=":1331989773_0_0" index="0" disallow="pedestrian bicycle tram rail_urban rail rail_electric rail_fast ship" speed="6.59" length="9.16" shape="3393.02,3387.06 3390.58,3386.73 3388.81,3385.67 3387.71,3383.89 3387.30,3381.39"/>
    </edge>
    <edge id=":1331989773_1" function="internal">
        <lane id=":1331989773_1_0" index="0" disallow="pedestrian bicycle tram rail_urban rail rail_electric rail_fast ship" speed="13.89" length="14.44" shape="3393.02,3387.06 3378.61,3387.11"/>
        <lane id=":1331989773_1_1" index="1" disallow="pedestrian bicycle tram rail_urban rail rail_electric rail_fast ship" speed="13.89" length="14.44" shape="3393.05,3390.26 3378.60,3390.31"/>
    </edge>
    <edge id=":1331989773_3" function="internal">
        <lane id=":1331989773_3_0" index="0" disallow="pedestrian bicycle tram rail_urban rail rail_electric rail_fast ship" speed="6.44" length="9.03" shape="3384.10,3381.48 3383.81,3383.95 3382.80,3385.71 3381.07,3386.76 3378.61,3387.11"/>
    </edge>
    <edge id=":1331989773_4" function="internal">
        <lane id=":1331989773_4_0" index="0" disallow="tram rail_urban rail rail_electric rail_fast ship" speed="3.65" length="4.67" shape="3384.10,3381.48 3384.93,3382.65 3385.74,3383.03 3386.53,3382.61 3387.30,3381.39"/>
    </edge>
    <edge id=":1331989774_0" function="internal">
        <lane id=":1331989774_0_0" index="0" disallow="tram rail_urban rail rail_electric rail_fast ship" speed="6.70" length="9.13" shape="3391.52,3291.27 3389.02,3290.94 3387.18,3289.93 3386.00,3288.23 3385.47,3285.85"/>
    </edge>
    <edge id=":1331989774_1" function="internal">
        <lane id=":1331989774_1_0" index="0" disallow="tram rail_urban rail rail_electric rail_fast ship" speed="8.00" length="14.12" shape="3391.52,3291.27 3387.69,3291.83 3384.96,3293.48 3383.31,3296.22 3382.75,3300.04"/>
    </edge>
    <edge id=":1331989774_2" function="internal">
        <lane id=":1331989774_2_0" index="0" disallow="tram rail_urban rail rail_electric rail_fast ship" speed="3.65" length="4.67" shape="3391.52,3291.27 3390.32,3292.08 3389.92,3292.88 3390.33,3293.68 3391.53,3294.47"/>
    </edge>
    <edge id=":1331989774_3" function="internal">
        <lane id=":1331989774_3_0" index="0" disallow="tram rail_urban rail rail_electric rail_fast ship" speed="6.51" length="8.98" shape="3385.95,3300.05 3386.31,3297.62 3387.35,3295.88 3389.10,3294.83 3391.53,3294.47"/>
    </edge>
    <edge id=":1331989774_4" function="internal">
        <lane id=":1331989774_4_0" index="0" disallow="tram rail_urban rail rail_electric rail_fast ship" speed="13.89" length="14.22" shape="3385.95,3300.05 3385.47,3285.85"/>
    </edge>
    <edge id=":1331989774_5" function="internal">
        <lane id=":1331989774_5_0" index="0" disallow="tram rail_urban rail rail_electric rail_fast ship" speed="3.65" length="2.34" shape="3385.95,3300.05 3385.15,3298.85 3384.36,3298.45"/>
    </edge>
    <edge id=":1331989774_9" function="internal">
        <lane id=":1331989774_9_0" index="0" disallow="tram rail_urban rail rail_electric rail_fast ship" speed="3.65" length="2.34" shape="3384.36,3298.45 3383.55,3298.85 3382.75,3300.04"/>
    </edge>
    <edge id=":1331989774_6" function="internal">
        <lane id=":1331989774_6_0" index="0" disallow="tram rail_urban rail rail_electric rail_fast ship" speed="13.89" length="13.98" shape="3382.28,3286.08 3382.75,3300.04"/>
    </edge>
    <edge id=":1331989774_7" function="internal">
        <lane id=":1331989774_7_0" index="0" disallow="tram rail_urban rail rail_electric rail_fast ship" speed="8.16" length="5.47" shape="3382.28,3286.08 3383.09,3289.76 3384.05,3291.16"/>
    </edge>
    <edge id=":1331989774_8" function="internal">
        <lane id=":1331989774_8_0" index="0" disallow="tram rail_urban rail rail_electric rail_fast ship" speed="3.65" length="2.34" shape="3382.28,3286.08 3383.16,3287.21 3383.99,3287.56"/>
    </edge>
    <edge id=":1331989774_10" function="internal">
        <lane id=":1331989774_10_0" index="0" disallow="tram rail_urban rail rail_electric rail_fast ship" speed="8.16" length="8.57" shape="3384.05,3291.16 3384.90,3292.39 3387.71,3293.96 3391.53,3294.47"/>
    </edge>
    <edge id=":1331989774_11" function="internal">
        <lane id=":1331989774_11_0" index="0" disallow="tram rail_urban rail rail_electric rail_fast ship" speed="3.65" length="2.34" shape="3383.99,3287.56 3384.76,3287.10 3385.47,3285.85"/>
    </edge>
    <edge id=":1331989784_0" function="internal">
        <lane id=":1331989784_0_0" index="0" disallow="tram rail_urban rail rail_electric rail_fast ship" speed="3.65" length="4.67" shape="4039.70,3288.36 4040.87,3287.51 4041.23,3286.69 4040.80,3285.91 4039.56,3285.16"/>
    </edge>
    <edge id=":1331989786_0" function="internal">
        <lane id=":1331989786_0_0" index="0" disallow="tram rail_urban rail rail_electric rail_fast ship" speed="13.89" length="14.55" shape="3382.67,3322.18 3382.85,3336.73"/>
    </edge>
    <edge id=":1331989786_1" function="internal">
        <lane id=":1331989786_1_0" index="0" disallow="tram rail_urban rail rail_electric rail_fast ship" speed="7.97" length="6.11" shape="3382.67,3322.18 3383.21,3326.06 3384.34,3327.94"/>
    </edge>
    <edge id=":1331989786_2" function="internal">
        <lane id=":1331989786_2_0" index="0" disallow="tram rail_urban rail rail_electric rail_fast ship" speed="3.65" length="2.34" shape="3382.67,3322.18 3383.47,3323.39 3384.27,3323.79"/>
    </edge>
    <edge id=":1331989786_9" function="internal">
        <lane id=":1331989786_9_0" index="0" disallow="tram rail_urban rail rail_electric rail_fast ship" speed="7.97" length="8.15" shape="3384.34,3327.94 3384.87,3328.81 3387.64,3330.44 3391.52,3330.95"/>
    </edge>
    <edge id=":1331989786_10" function="internal">
        <lane id=":1331989786_10_0" index="0" disallow="tram rail_urban rail rail_electric rail_fast ship" speed="3.65" length="2.34" shape="3384.27,3323.79 3385.07,3323.39 3385.87,3322.19"/>
    </edge>
    <edge id=":1331989786_3" function="internal">
        <lane id=":1331989786_3_0" index="0" disallow="tram rail_urban rail rail_electric rail_fast ship" speed="6.47" length="9.03" shape="3391.48,3327.75 3389.02,3327.43 3387.26,3326.40 3386.22,3324.65 3385.87,3322.19"/>
    </edge>
    <edge id=":1331989786_4" function="internal">
        <lane id=":1331989786_4_0" index="0" disallow="tram rail_urban rail rail_electric rail_fast ship" speed="7.98" length="14.25" shape="3391.48,3327.75 3387.61,3328.35 3384.88,3330.05 3383.30,3332.84 3382.85,3336.73"/>
    </edge>
    <edge id=":1331989786_5" function="internal">
        <lane id=":1331989786_5_0" index="0" disallow="tram rail_urban rail rail_electric rail_fast ship" speed="3.65" length="4.67" shape="3391.48,3327.75 3390.29,3328.56 3389.90,3329.37 3390.31,3330.16 3391.52,3330.95"/>
    </edge>
    <edge id=":1331989786_6" function="internal">
        <lane id=":1331989786_6_0" index="0" disallow="tram rail_urban rail rail_electric rail_fast ship" speed="6.48" length="9.04" shape="3386.05,3336.64 3386.33,3334.18 3387.34,3332.41 3389.07,3331.33 3391.52,3330.95"/>
    </edge>
    <edge id=":1331989786_7" function="internal">
        <lane id=":1331989786_7_0" index="0" disallow="tram rail_urban rail rail_electric rail_fast ship" speed="13.89" length="14.45" shape="3386.05,3336.64 3385.87,3322.19"/>
    </edge>
    <edge id=":1331989786_8" function="internal">
        <lane id=":1331989786_8_0" index="0" disallow="tram rail_urban rail rail_electric rail_fast ship" speed="3.65" length="2.34" shape="3386.05,3336.64 3385.22,3335.47 3384.40,3335.09"/>
    </edge>
    <edge id=":1331989786_11" function="internal">
        <lane id=":1331989786_11_0" index="0" disallow="tram rail_urban rail rail_electric rail_fast ship" speed="3.65" length="2.34" shape="3384.40,3335.09 3383.62,3335.51 3382.85,3336.73"/>
    </edge>
    <edge id=":1734983823_0" function="internal">
        <lane id=":1734983823_0_0" index="0" disallow="tram rail_urban rail rail_electric rail_fast ship" speed="3.65" length="4.67" shape="3383.56,3176.88 3382.75,3175.68 3381.95,3175.29 3381.15,3175.69 3380.36,3176.90"/>
    </edge>
    <edge id=":362377120_0" function="internal">
        <lane id=":362377120_0_0" index="0" disallow="tram rail_urban rail rail_electric rail_fast ship" speed="3.65" length="4.67" shape="3422.14,3704.21 3422.93,3705.42 3423.72,3705.83 3424.53,3705.44 3425.34,3704.25"/>
    </edge>
    <edge id=":6137413190_0" function="internal">
        <lane id=":6137413190_0_0" index="0" disallow="pedestrian bicycle tram rail_urban rail rail_electric rail_fast ship" speed="6.05" length="9.07" shape="3136.94,3531.96 3134.36,3531.85 3132.64,3530.91 3131.78,3529.16 3131.78,3526.58"/>
    </edge>
    <edge id=":6137413190_1" function="internal">
        <lane id=":6137413190_1_0" index="0" disallow="tram rail_urban rail rail_electric rail_fast ship" speed="3.65" length="4.67" shape="3136.94,3531.96 3135.82,3532.88 3135.50,3533.71 3135.98,3534.47 3137.25,3535.15"/>
    </edge>
    <edge id=":6137413190_2" function="internal">
        <lane id=":6137413190_2_0" index="0" disallow="pedestrian bicycle tram rail_urban rail rail_electric rail_fast ship" speed="7.60" length="10.37" shape="3129.73,3541.02 3130.48,3538.70 3131.98,3536.95 3134.24,3535.77 3137.25,3535.15"/>
    </edge>
    <edge id=":6137413190_3" function="internal">
        <lane id=":6137413190_3_0" index="0" disallow="pedestrian bicycle tram rail_urban rail rail_electric rail_fast ship" speed="27.78" length="14.59" shape="3129.73,3541.02 3131.78,3526.58"/>
        <lane id=":6137413190_3_1" index="1" disallow="pedestrian bicycle tram rail_urban rail rail_electric rail_fast ship" speed="27.78" length="14.59" shape="3126.56,3540.57 3128.61,3526.13"/>
    </edge>
    <edge id=":6137413194_0" function="internal">
        <lane id=":6137413194_0_0" index="0" disallow="tram rail_urban rail rail_electric rail_fast ship" speed="13.89" length="14.40" shape="3253.35,3444.48 3238.96,3444.21"/>
    </edge>
    <edge id=":6137413194_1" function="internal">
        <lane id=":6137413194_1_0" index="0" disallow="tram rail_urban rail rail_electric rail_fast ship" speed="8.02" length="5.92" shape="3253.35,3444.48 3249.50,3444.96 3247.74,3445.98"/>
    </edge>
    <edge id=":6137413194_2" function="internal">
        <lane id=":6137413194_2_0" index="0" disallow="tram rail_urban rail rail_electric rail_fast ship" speed="3.65" length="2.34" shape="3253.35,3444.48 3252.14,3445.26 3251.73,3446.05"/>
    </edge>
    <edge id=":6137413194_9" function="internal">
        <lane id=":6137413194_9_0" index="0" disallow="tram rail_urban rail rail_electric rail_fast ship" speed="8.02" length="8.28" shape="3247.74,3445.98 3246.72,3446.56 3245.01,3449.28 3244.38,3453.12"/>
    </edge>
    <edge id=":6137413194_10" function="internal">
        <lane id=":6137413194_10_0" index="0" disallow="tram rail_urban rail rail_electric rail_fast ship" speed="3.65" length="2.34" shape="3251.73,3446.05 3252.11,3446.86 3253.30,3447.68"/>
    </edge>
    <edge id=":6137413194_3" function="internal">
        <lane id=":6137413194_3_0" index="0" disallow="tram rail_urban rail rail_electric rail_fast ship" speed="6.53" length="9.05" shape="3247.57,3453.20 3247.98,3450.74 3249.07,3449.01 3250.84,3447.99 3253.30,3447.68"/>
    </edge>
    <edge id=":6137413194_4" function="internal">
        <lane id=":6137413194_4_0" index="0" disallow="tram rail_urban rail rail_electric rail_fast ship" speed="7.99" length="14.21" shape="3247.57,3453.20 3247.11,3449.33 3245.52,3446.54 3242.81,3444.84 3238.96,3444.21"/>
    </edge>
    <edge id=":6137413194_5" function="internal">
        <lane id=":6137413194_5_0" index="0" disallow="tram rail_urban rail rail_electric rail_fast ship" speed="3.65" length="4.67" shape="3247.57,3453.20 3246.80,3451.98 3246.01,3451.56 3245.20,3451.94 3244.38,3453.12"/>
    </edge>
    <edge id=":6137413194_6" function="internal">
        <lane id=":6137413194_6_0" index="0" disallow="tram rail_urban rail rail_electric rail_fast ship" speed="6.50" length="9.03" shape="3238.90,3447.41 3241.34,3447.81 3243.07,3448.89 3244.08,3450.66 3244.38,3453.12"/>
    </edge>
    <edge id=":6137413194_7" function="internal">
        <lane id=":6137413194_7_0" index="0" disallow="tram rail_urban rail rail_electric rail_fast ship" speed="13.89" length="14.40" shape="3238.90,3447.41 3253.30,3447.68"/>
    </edge>
    <edge id=":6137413194_8" function="internal">
        <lane id=":6137413194_8_0" index="0" disallow="tram rail_urban rail rail_electric rail_fast ship" speed="3.65" length="2.34" shape="3238.90,3447.41 3240.11,3446.64 3240.53,3445.84"/>
    </edge>
    <edge id=":6137413194_11" function="internal">
        <lane id=":6137413194_11_0" index="0" disallow="tram rail_urban rail rail_electric rail_fast ship" speed="3.65" length="2.34" shape="3240.53,3445.84 3240.14,3445.04 3238.96,3444.21"/>
    </edge>
    <edge id=":6137413195_0" function="internal">
        <lane id=":6137413195_0_0" index="0" disallow="tram rail_urban rail rail_electric rail_fast ship" speed="6.35" length="9.04" shape="3429.05,3449.18 3428.64,3451.65 3427.54,3453.34 3425.74,3454.25 3423.24,3454.36"/>
    </edge>
    <edge id=":6137413195_1" function="internal">
        <lane id=":6137413195_1_0" index="0" disallow="tram rail_urban rail rail_electric rail_fast ship" speed="13.89" length="14.42" shape="3429.05,3449.18 3428.78,3463.60"/>
    </edge>
    <edge id=":6137413195_2" function="internal">
        <lane id=":6137413195_2_0" index="0" disallow="tram rail_urban rail rail_electric rail_fast ship" speed="3.65" length="2.34" shape="3429.05,3449.18 3429.83,3450.40 3430.62,3450.81"/>
    </edge>
    <edge id=":6137413195_9" function="internal">
        <lane id=":6137413195_9_0" index="0" disallow="tram rail_urban rail rail_electric rail_fast ship" speed="3.65" length="2.34" shape="3430.62,3450.81 3431.42,3450.43 3432.25,3449.24"/>
    </edge>
    <edge id=":6137413195_3" function="internal">
        <lane id=":6137413195_3_0" index="0" disallow="tram rail_urban rail rail_electric rail_fast ship" speed="13.89" length="14.42" shape="3431.98,3463.66 3432.25,3449.24"/>
    </edge>
    <edge id=":6137413195_4" function="internal">
        <lane id=":6137413195_4_0" index="0" disallow="tram rail_urban rail rail_electric rail_fast ship" speed="8.26" length="5.80" shape="3431.98,3463.66 3431.49,3459.91 3430.48,3458.16"/>
    </edge>
    <edge id=":6137413195_5" function="internal">
        <lane id=":6137413195_5_0" index="0" disallow="tram rail_urban rail rail_electric rail_fast ship" speed="3.65" length="2.34" shape="3431.98,3463.66 3431.21,3462.44 3430.41,3462.03"/>
    </edge>
    <edge id=":6137413195_10" function="internal">
        <lane id=":6137413195_10_0" index="0" disallow="tram rail_urban rail rail_electric rail_fast ship" speed="8.26" length="8.52" shape="3430.48,3458.16 3429.87,3457.11 3427.12,3455.26 3423.24,3454.36"/>
    </edge>
    <edge id=":6137413195_11" function="internal">
        <lane id=":6137413195_11_0" index="0" disallow="tram rail_urban rail rail_electric rail_fast ship" speed="3.65" length="2.34" shape="3430.41,3462.03 3429.61,3462.41 3428.78,3463.60"/>
    </edge>
    <edge id=":6137413195_6" function="internal">
        <lane id=":6137413195_6_0" index="0" disallow="tram rail_urban rail rail_electric rail_fast ship" speed="6.82" length="9.44" shape="3422.94,3457.55 3425.53,3458.14 3427.37,3459.35 3428.46,3461.17 3428.78,3463.60"/>
    </edge>
    <edge id=":6137413195_7" function="internal">
        <lane id=":6137413195_7_0" index="0" disallow="tram rail_urban rail rail_electric rail_fast ship" speed="7.87" length="14.49" shape="3422.94,3457.55 3426.95,3457.36 3429.83,3455.91 3431.60,3453.20 3432.25,3449.24"/>
    </edge>
    <edge id=":6137413195_8" function="internal">
        <lane id=":6137413195_8_0" index="0" disallow="tram rail_urban rail rail_electric rail_fast ship" speed="3.65" length="4.67" shape="3422.94,3457.55 3424.21,3456.87 3424.68,3456.11 3424.36,3455.28 3423.24,3454.36"/>
    </edge>
    <edge id=":6137413199_0" function="internal">
        <lane id=":6137413199_0_0" index="0" disallow="pedestrian bicycle tram rail_urban rail rail_electric rail_fast ship" speed="5.66" length="7.74" shape="3146.31,3452.83 3144.55,3452.63 3143.41,3451.63 3142.90,3449.84 3143.01,3447.26"/>
    </edge>
    <edge id=":6137413199_1" function="internal">
        <lane id=":6137413199_1_0" index="0" disallow="tram rail_urban rail rail_electric rail_fast ship" speed="3.65" length="4.67" shape="3146.31,3452.83 3145.19,3453.74 3144.87,3454.58 3145.34,3455.34 3146.61,3456.02"/>
    </edge>
    <edge id=":6137413199_2" function="internal">
        <lane id=":6137413199_2_0" index="0" disallow="pedestrian bicycle tram rail_urban rail rail_electric rail_fast ship" speed="7.00" length="8.73" shape="3140.96,3461.69 3141.59,3459.38 3142.74,3457.67 3144.42,3456.55 3146.61,3456.02"/>
    </edge>
    <edge id=":6137413199_3" function="internal">
        <lane id=":6137413199_3_0" index="0" disallow="pedestrian bicycle tram rail_urban rail rail_electric rail_fast ship" speed="27.78" length="14.58" shape="3140.96,3461.69 3143.01,3447.26"/>
        <lane id=":6137413199_3_1" index="1" disallow="pedestrian bicycle tram rail_urban rail rail_electric rail_fast ship" speed="27.78" length="14.58" shape="3137.79,3461.24 3139.84,3446.81"/>
    </edge>
    <edge id=":7100697624_0" function="internal">
        <lane id=":7100697624_0_0" index="0" disallow="tram rail_urban rail rail_electric rail_fast ship" speed="6.47" length="8.16" shape="3150.18,3446.35 3149.91,3449.05 3149.21,3451.03 3148.08,3452.29 3146.51,3452.82"/>
    </edge>
    <edge id=":7100697624_1" function="internal">
        <lane id=":7100697624_1_0" index="0" disallow="tram rail_urban rail rail_electric rail_fast ship" speed="7.82" length="14.63" shape="3150.18,3446.35 3150.69,3450.39 3152.39,3453.15 3155.27,3454.63 3159.34,3454.84"/>
    </edge>
    <edge id=":7100697624_2" function="internal">
        <lane id=":7100697624_2_0" index="0" disallow="tram rail_urban rail rail_electric rail_fast ship" speed="3.65" length="4.67" shape="3150.18,3446.35 3150.96,3447.56 3151.75,3447.97 3152.56,3447.59 3153.38,3446.40"/>
    </edge>
    <edge id=":7100697624_3" function="internal">
        <lane id=":7100697624_3_0" index="0" disallow="tram rail_urban rail rail_electric rail_fast ship" speed="6.28" length="9.04" shape="3159.04,3451.65 3156.53,3451.52 3154.75,3450.61 3153.70,3448.90 3153.38,3446.40"/>
    </edge>
    <edge id=":7100697624_4" function="internal">
        <lane id=":7100697624_4_0" index="0" disallow="tram rail_urban rail rail_electric rail_fast ship" speed="13.89" length="12.58" shape="3159.04,3451.65 3146.51,3452.82"/>
    </edge>
    <edge id=":7100697624_5" function="internal">
        <lane id=":7100697624_5_0" index="0" disallow="tram rail_urban rail rail_electric rail_fast ship" speed="3.65" length="2.34" shape="3159.04,3451.65 3157.92,3452.56 3157.60,3453.39"/>
    </edge>
    <edge id=":7100697624_9" function="internal">
        <lane id=":7100697624_9_0" index="0" disallow="tram rail_urban rail rail_electric rail_fast ship" speed="3.65" length="2.34" shape="3157.60,3453.39 3158.07,3454.15 3159.34,3454.84"/>
    </edge>
    <edge id=":7100697624_6" function="internal">
        <lane id=":7100697624_6_0" index="0" disallow="tram rail_urban rail rail_electric rail_fast ship" speed="13.89" length="12.58" shape="3146.81,3456.00 3159.34,3454.84"/>
    </edge>
    <edge id=":7100697624_7" function="internal">
        <lane id=":7100697624_7_0" index="0" disallow="tram rail_urban rail rail_electric rail_fast ship" speed="7.97" length="4.65" shape="3146.81,3456.00 3149.63,3455.18 3150.89,3454.02"/>
    </edge>
    <edge id=":7100697624_8" function="internal">
        <lane id=":7100697624_8_0" index="0" disallow="tram rail_urban rail rail_electric rail_fast ship" speed="3.65" length="2.34" shape="3146.81,3456.00 3147.93,3455.09 3148.26,3454.26"/>
    </edge>
    <edge id=":7100697624_10" function="internal">
        <lane id=":7100697624_10_0" index="0" disallow="tram rail_urban rail rail_electric rail_fast ship" speed="7.97" length="8.24" shape="3150.89,3454.02 3151.66,3453.30 3152.91,3450.38 3153.38,3446.40"/>
    </edge>
    <edge id=":7100697624_11" function="internal">
        <lane id=":7100697624_11_0" index="0" disallow="tram rail_urban rail rail_electric rail_fast ship" speed="3.65" length="2.34" shape="3148.26,3454.26 3147.78,3453.50 3146.51,3452.82"/>
    </edge>
    <edge id=":7100697625_0" function="internal">
        <lane id=":7100697625_0_0" index="0" disallow="tram rail_urban rail rail_electric rail_fast ship" speed="10.92" length="7.60" shape="3158.56,3419.98 3156.31,3420.33 3154.69,3420.64 3153.17,3420.55 3151.21,3419.65"/>
    </edge>
    <edge id=":7100697625_1" function="internal">
        <lane id=":7100697625_1_0" index="0" disallow="tram rail_urban rail rail_electric rail_fast ship" speed="8.02" length="5.96" shape="3158.56,3419.98 3155.07,3420.77 3153.10,3422.10"/>
    </edge>
    <edge id=":7100697625_2" function="internal">
        <lane id=":7100697625_2_0" index="0" disallow="tram rail_urban rail rail_electric rail_fast ship" speed="3.65" length="2.34" shape="3158.56,3419.98 3157.43,3420.88 3157.09,3421.71"/>
    </edge>
    <edge id=":7100697625_9" function="internal">
        <lane id=":7100697625_9_0" index="0" disallow="tram rail_urban rail rail_electric rail_fast ship" speed="8.02" length="7.24" shape="3153.10,3422.10 3152.57,3422.47 3151.03,3425.08 3150.48,3428.60"/>
    </edge>
    <edge id=":7100697625_10" function="internal">
        <lane id=":7100697625_10_0" index="0" disallow="tram rail_urban rail rail_electric rail_fast ship" speed="3.65" length="2.34" shape="3157.09,3421.71 3157.56,3422.47 3158.82,3423.17"/>
    </edge>
    <edge id=":7100697625_3" function="internal">
        <lane id=":7100697625_3_0" index="0" disallow="tram rail_urban rail rail_electric rail_fast ship" speed="6.52" length="8.40" shape="3153.68,3428.66 3154.03,3426.41 3155.01,3424.75 3156.60,3423.67 3158.82,3423.17"/>
    </edge>
    <edge id=":7100697625_4" function="internal">
        <lane id=":7100697625_4_0" index="0" disallow="tram rail_urban rail rail_electric rail_fast ship" speed="8.50" length="9.66" shape="3153.68,3428.66 3153.57,3425.31 3153.13,3422.69 3152.34,3420.80 3151.21,3419.65"/>
    </edge>
    <edge id=":7100697625_5" function="internal">
        <lane id=":7100697625_5_0" index="0" disallow="tram rail_urban rail rail_electric rail_fast ship" speed="3.65" length="4.67" shape="3153.68,3428.66 3152.90,3427.45 3152.11,3427.03 3151.30,3427.42 3150.48,3428.60"/>
    </edge>
    <edge id=":7100697625_6" function="internal">
        <lane id=":7100697625_6_0" index="0" disallow="tram rail_urban rail rail_electric rail_fast ship" speed="7.03" length="6.40" shape="3149.56,3422.39 3150.00,3423.01 3150.30,3424.25 3150.46,3426.12 3150.48,3428.60"/>
    </edge>
    <edge id=":7100697625_7" function="internal">
        <lane id=":7100697625_7_0" index="0" disallow="tram rail_urban rail rail_electric rail_fast ship" speed="12.22" length="9.59" shape="3149.56,3422.39 3152.03,3423.58 3153.94,3423.83 3155.98,3423.55 3158.82,3423.17"/>
    </edge>
    <edge id=":7100697625_8" function="internal">