<?xml version="1.0" encoding="UTF-8"?>

<!-- generated on Fri Apr 30 12:42:05 2021 by Eclipse SUMO netedit Version 1.8.0
<configuration xmlns:xsi="http://www.w3.org/2001/XMLSchema-instance" xsi:noNamespaceSchemaLocation="http://sumo.dlr.de/xsd/netconvertConfiguration.xsd">

    <input>
        <sumo-net-file value="osm.net.xml"/>
    </input>

    <output>
        <output-file value="osm.net.xml"/>
        <output.street-names value="true"/>
    </output>

    <processing>
        <geometry.min-radius.fix.railways value="false"/>
        <geometry.max-grade.fix value="false"/>
        <offset.disable-normalization value="true"/>
        <lefthand value="true"/>
    </processing>

    <junctions>
        <no-turnarounds value="true"/>
        <junctions.corner-detail value="5"/>
        <junctions.limit-turn-speed value="5.5"/>
        <rectangular-lane-cut value="false"/>
    </junctions>

    <pedestrian>
        <walkingareas value="false"/>
    </pedestrian>

    <report>
        <aggregate-warnings value="5"/>
    </report>

</configuration>
-->

<net version="1.6" junctionCornerDetail="5" lefthand="true" limitTurnSpeed="5.50" xmlns:xsi="http://www.w3.org/2001/XMLSchema-instance" xsi:noNamespaceSchemaLocation="http://sumo.dlr.de/xsd/net_file.xsd">

    <location netOffset="-775991.45,-1429870.83" convBoundary="0.00,0.00,1173.42,939.41" origBoundary="77.543610,12.921837,77.554351,12.930354" projParameter="+proj=utm +zone=43 +ellps=WGS84 +datum=WGS84 +units=m +no_defs"/>

    <type id="highway.bridleway" priority="1" numLanes="1" speed="2.78" allow="pedestrian" oneway="1" width="2.00"/>
    <type id="highway.bus_guideway" priority="1" numLanes="1" speed="27.78" allow="bus" oneway="1"/>
    <type id="highway.cycleway" priority="1" numLanes="1" speed="8.33" allow="bicycle" oneway="1" width="1.00"/>
    <type id="highway.footway" priority="1" numLanes="1" speed="2.78" allow="pedestrian" oneway="1" width="2.00"/>
    <type id="highway.ford" priority="1" numLanes="1" speed="2.78" allow="army" oneway="1"/>
    <type id="highway.living_street" priority="2" numLanes="1" speed="2.78" disallow="tram rail_urban rail rail_electric rail_fast ship" oneway="1"/>
    <type id="highway.motorway" priority="14" numLanes="2" speed="39.44" allow="private emergency authority army vip passenger hov taxi bus coach delivery truck trailer motorcycle evehicle custom1 custom2" oneway="1"/>
    <type id="highway.motorway_link" priority="9" numLanes="1" speed="22.22" allow="private emergency authority army vip passenger hov taxi bus coach delivery truck trailer motorcycle evehicle custom1 custom2" oneway="1"/>
    <type id="highway.path" priority="1" numLanes="1" speed="2.78" allow="pedestrian bicycle" oneway="1" width="2.00"/>
    <type id="highway.pedestrian" priority="1" numLanes="1" speed="2.78" allow="pedestrian" oneway="1" width="2.00"/>
    <type id="highway.primary" priority="12" numLanes="2" speed="27.78" disallow="tram rail_urban rail rail_electric rail_fast ship" oneway="1"/>
    <type id="highway.primary_link" priority="7" numLanes="1" speed="22.22" disallow="tram rail_urban rail rail_electric rail_fast ship" oneway="1"/>
    <type id="highway.raceway" priority="15" numLanes="2" speed="83.33" allow="vip" oneway="1"/>
    <type id="highway.residential" priority="3" numLanes="1" speed="13.89" disallow="tram rail_urban rail rail_electric rail_fast ship" oneway="1"/>
    <type id="highway.secondary" priority="11" numLanes="1" speed="27.78" disallow="tram rail_urban rail rail_electric rail_fast ship" oneway="1"/>
    <type id="highway.secondary_link" priority="6" numLanes="1" speed="22.22" disallow="tram rail_urban rail rail_electric rail_fast ship" oneway="1"/>
    <type id="highway.service" priority="1" numLanes="1" speed="5.56" allow="pedestrian delivery bicycle" oneway="1"/>
    <type id="highway.stairs" priority="1" numLanes="1" speed="1.39" allow="pedestrian" oneway="1" width="2.00"/>
    <type id="highway.step" priority="1" numLanes="1" speed="1.39" allow="pedestrian" oneway="1" width="2.00"/>
    <type id="highway.steps" priority="1" numLanes="1" speed="1.39" allow="pedestrian" oneway="1" width="2.00"/>
    <type id="highway.tertiary" priority="10" numLanes="1" speed="22.22" disallow="tram rail_urban rail rail_electric rail_fast ship" oneway="1"/>
    <type id="highway.tertiary_link" priority="5" numLanes="1" speed="22.22" disallow="tram rail_urban rail rail_electric rail_fast ship" oneway="1"/>
    <type id="highway.track" priority="1" numLanes="1" speed="5.56" allow="pedestrian motorcycle moped bicycle" oneway="1"/>
    <type id="highway.trunk" priority="13" numLanes="2" speed="27.78" disallow="pedestrian bicycle tram rail_urban rail rail_electric rail_fast ship" oneway="1"/>
    <type id="highway.trunk_link" priority="8" numLanes="1" speed="22.22" disallow="pedestrian bicycle tram rail_urban rail rail_electric rail_fast ship" oneway="1"/>
    <type id="highway.unclassified" priority="4" numLanes="1" speed="13.89" disallow="tram rail_urban rail rail_electric rail_fast ship" oneway="1"/>
    <type id="highway.unsurfaced" priority="1" numLanes="1" speed="8.33" disallow="tram rail_urban rail rail_electric rail_fast ship" oneway="1"/>
    <type id="railway.highspeed" priority="21" numLanes="1" speed="69.44" allow="rail_fast" oneway="1"/>
    <type id="railway.light_rail" priority="19" numLanes="1" speed="27.78" allow="rail_urban" oneway="1"/>
    <type id="railway.preserved" priority="16" numLanes="1" speed="27.78" allow="rail" oneway="1"/>
    <type id="railway.rail" priority="20" numLanes="1" speed="44.44" allow="rail" oneway="1"/>
    <type id="railway.subway" priority="18" numLanes="1" speed="27.78" allow="rail_urban" oneway="1"/>
    <type id="railway.tram" priority="17" numLanes="1" speed="13.89" allow="tram" oneway="1"/>

    <edge id=":1465020097_0" function="internal">
        <lane id=":1465020097_0_0" index="0" disallow="tram rail_urban rail rail_electric rail_fast ship" speed="27.78" length="0.20" shape="883.48,700.19 883.45,700.14 883.43,700.10 883.41,700.07 883.37,700.02"/>
    </edge>
    <edge id=":1809626545_0" function="internal">
        <lane id=":1809626545_0_0" index="0" disallow="tram rail_urban rail rail_electric rail_fast ship" speed="3.65" length="4.67" shape="829.30,1.46 830.07,0.24 830.11,-0.65 829.42,-1.22 828.00,-1.46"/>
    </edge>
    <edge id=":249072289_0" function="internal">
        <lane id=":249072289_0_0" index="0" disallow="tram rail_urban rail rail_electric rail_fast ship" speed="3.65" length="4.67" shape="1069.20,304.42 1070.16,303.34 1070.35,302.47 1069.76,301.79 1068.40,301.32"/>
    </edge>
    <edge id=":503308934_0" function="internal">
        <lane id=":503308934_0_0" index="0" disallow="tram rail_urban rail rail_electric rail_fast ship" speed="3.91" length="2.51" shape="787.19,411.64 786.54,411.85 785.97,411.81 785.49,411.51 785.08,410.96"/>
    </edge>
    <edge id=":503308934_1" function="internal">
        <lane id=":503308934_1_0" index="0" disallow="tram rail_urban rail rail_electric rail_fast ship" speed="3.65" length="2.08" shape="787.19,411.64 786.47,412.88 786.46,413.52"/>
    </edge>
    <edge id=":503308934_4" function="internal">
        <lane id=":503308934_4_0" index="0" disallow="tram rail_urban rail rail_electric rail_fast ship" speed="3.65" length="2.59" shape="786.46,413.52 786.46,413.78 787.17,414.32 788.60,414.51"/>
    </edge>
    <edge id=":503308934_2" function="internal">
        <lane id=":503308934_2_0" index="0" disallow="tram rail_urban rail rail_electric rail_fast ship" speed="6.08" length="7.54" shape="782.26,412.47 783.48,414.13 784.94,415.02 786.65,415.15 788.60,414.51"/>
    </edge>
    <edge id=":503308934_3" function="internal">
        <lane id=":503308934_3_0" index="0" disallow="tram rail_urban rail rail_electric rail_fast ship" speed="3.65" length="2.67" shape="782.26,412.47 783.53,413.15 784.43,413.12 784.62,412.85"/>
    </edge>
    <edge id=":503308934_5" function="internal">
        <lane id=":503308934_5_0" index="0" disallow="tram rail_urban rail rail_electric rail_fast ship" speed="3.65" length="2.01" shape="784.62,412.85 784.94,412.39 785.08,410.96"/>
    </edge>
    <edge id=":503308961_0" function="internal">
        <lane id=":503308961_0_0" index="0" disallow="tram rail_urban rail rail_electric rail_fast ship" speed="3.65" length="4.67" shape="876.84,488.86 878.12,489.52 879.02,489.48 879.52,488.74 879.64,487.30"/>
    </edge>
    <edge id=":503308962_0" function="internal">
        <lane id=":503308962_0_0" index="0" disallow="tram rail_urban rail rail_electric rail_fast ship" speed="13.89" length="14.41" shape="831.94,389.70 819.01,396.04"/>
    </edge>
    <edge id=":503308962_1" function="internal">
        <lane id=":503308962_1_0" index="0" disallow="tram rail_urban rail rail_electric rail_fast ship" speed="7.91" length="5.94" shape="831.94,389.70 828.66,391.94 827.62,393.60"/>
    </edge>
    <edge id=":503308962_2" function="internal">
        <lane id=":503308962_2_0" index="0" disallow="tram rail_urban rail rail_electric rail_fast ship" speed="3.65" length="2.34" shape="831.94,389.70 831.22,390.94 831.21,391.84"/>
    </edge>
    <edge id=":503308962_9" function="internal">
        <lane id=":503308962_9_0" index="0" disallow="tram rail_urban rail rail_electric rail_fast ship" speed="7.91" length="8.46" shape="827.62,393.60 826.95,394.67 826.80,397.89 828.22,401.60"/>
    </edge>
    <edge id=":503308962_10" function="internal">
        <lane id=":503308962_10_0" index="0" disallow="tram rail_urban rail rail_electric rail_fast ship" speed="3.65" length="2.34" shape="831.21,391.84 831.92,392.38 833.35,392.57"/>
    </edge>
    <edge id=":503308962_3" function="internal">
        <lane id=":503308962_3_0" index="0" disallow="tram rail_urban rail rail_electric rail_fast ship" speed="6.40" length="9.04" shape="831.01,400.04 830.12,397.71 830.22,395.69 831.29,393.98 833.35,392.57"/>
    </edge>
    <edge id=":503308962_4" function="internal">
        <lane id=":503308962_4_0" index="0" disallow="tram rail_urban rail rail_electric rail_fast ship" speed="8.18" length="14.27" shape="831.01,400.04 828.64,396.88 825.85,395.16 822.64,394.88 819.01,396.04"/>
    </edge>
    <edge id=":503308962_5" function="internal">
        <lane id=":503308962_5_0" index="0" disallow="tram rail_urban rail rail_electric rail_fast ship" speed="3.65" length="4.67" shape="831.01,400.04 829.73,399.38 828.84,399.42 828.33,400.16 828.22,401.60"/>
    </edge>
    <edge id=":503308962_6" function="internal">
        <lane id=":503308962_6_0" index="0" disallow="tram rail_urban rail rail_electric rail_fast ship" speed="6.72" length="9.30" shape="820.42,398.91 822.76,398.17 824.84,398.37 826.66,399.51 828.22,401.60"/>
    </edge>
    <edge id=":503308962_7" function="internal">
        <lane id=":503308962_7_0" index="0" disallow="tram rail_urban rail rail_electric rail_fast ship" speed="13.89" length="14.41" shape="820.42,398.91 833.35,392.57"/>
    </edge>
    <edge id=":503308962_8" function="internal">
        <lane id=":503308962_8_0" index="0" disallow="tram rail_urban rail rail_electric rail_fast ship" speed="3.65" length="2.34" shape="820.42,398.91 821.14,397.67 821.15,396.77"/>
    </edge>
    <edge id=":503308962_11" function="internal">
        <lane id=":503308962_11_0" index="0" disallow="tram rail_urban rail rail_electric rail_fast ship" speed="3.65" length="2.34" shape="821.15,396.77 820.44,396.23 819.01,396.04"/>
    </edge>
    <edge id=":503308964_0" function="internal">
        <lane id=":503308964_0_0" index="0" disallow="tram rail_urban rail rail_electric rail_fast ship" speed="6.91" length="9.55" shape="851.08,423.62 848.47,424.39 846.23,424.25 844.36,423.22 842.85,421.29"/>
    </edge>
    <edge id=":503308964_1" function="internal">
        <lane id=":503308964_1_0" index="0" disallow="tram rail_urban rail rail_electric rail_fast ship" speed="7.83" length="14.58" shape="851.08,423.62 847.63,425.76 845.82,428.44 845.64,431.67 847.09,435.46"/>
    </edge>
    <edge id=":503308964_2" function="internal">
        <lane id=":503308964_2_0" index="0" disallow="tram rail_urban rail rail_electric rail_fast ship" speed="3.65" length="4.67" shape="851.08,423.62 850.30,424.84 850.25,425.73 850.94,426.30 852.36,426.56"/>
    </edge>
    <edge id=":503308964_3" function="internal">
        <lane id=":503308964_3_0" index="0" disallow="tram rail_urban rail rail_electric rail_fast ship" speed="6.30" length="9.04" shape="849.88,433.89 848.98,431.55 849.09,429.54 850.22,427.88 852.36,426.56"/>
    </edge>
    <edge id=":503308964_4" function="internal">
        <lane id=":503308964_4_0" index="0" disallow="tram rail_urban rail rail_electric rail_fast ship" speed="13.89" length="14.43" shape="849.88,433.89 842.85,421.29"/>
    </edge>
    <edge id=":503308964_5" function="internal">
        <lane id=":503308964_5_0" index="0" disallow="tram rail_urban rail rail_electric rail_fast ship" speed="3.65" length="2.34" shape="849.88,433.89 848.60,433.24 847.71,433.28"/>
    </edge>
    <edge id=":503308964_9" function="internal">
        <lane id=":503308964_9_0" index="0" disallow="tram rail_urban rail rail_electric rail_fast ship" speed="3.65" length="2.34" shape="847.71,433.28 847.20,434.02 847.09,435.46"/>
    </edge>
    <edge id=":503308964_6" function="internal">
        <lane id=":503308964_6_0" index="0" disallow="tram rail_urban rail rail_electric rail_fast ship" speed="13.89" length="14.44" shape="840.05,422.85 847.09,435.46"/>
    </edge>
    <edge id=":503308964_7" function="internal">
        <lane id=":503308964_7_0" index="0" disallow="tram rail_urban rail rail_electric rail_fast ship" speed="8.34" length="5.78" shape="840.05,422.85 842.35,425.82 844.10,426.82"/>
    </edge>
    <edge id=":503308964_8" function="internal">
        <lane id=":503308964_8_0" index="0" disallow="tram rail_urban rail rail_electric rail_fast ship" speed="3.65" length="2.34" shape="840.05,422.85 841.34,423.51 842.23,423.47"/>
    </edge>
    <edge id=":503308964_10" function="internal">
        <lane id=":503308964_10_0" index="0" disallow="tram rail_urban rail rail_electric rail_fast ship" speed="8.34" length="8.58" shape="844.10,426.82 845.16,427.42 848.50,427.67 852.36,426.56"/>
    </edge>
    <edge id=":503308964_11" function="internal">
        <lane id=":503308964_11_0" index="0" disallow="tram rail_urban rail rail_electric rail_fast ship" speed="3.65" length="2.34" shape="842.23,423.47 842.73,422.73 842.85,421.29"/>
    </edge>
    <edge id=":503308967_0" function="internal">
        <lane id=":503308967_0_0" index="0" disallow="tram rail_urban rail rail_electric rail_fast ship" speed="3.65" length="4.67" shape="991.76,375.21 992.66,374.08 992.79,373.20 992.17,372.56 990.78,372.17"/>
    </edge>
    <edge id=":6168147249_0" function="internal">
        <lane id=":6168147249_0_0" index="0" disallow="pedestrian bicycle tram rail_urban rail rail_electric rail_fast ship" speed="16.67" length="0.27" shape="662.50,403.41 662.30,403.53"/>
        <lane id=":6168147249_0_1" index="1" disallow="pedestrian bicycle tram rail_urban rail rail_electric rail_fast ship" speed="16.67" length="0.27" shape="664.17,406.13 663.91,406.29"/>
    </edge>
    <edge id=":699684243_0" function="internal">
        <lane id=":699684243_0_0" index="0" disallow="pedestrian bicycle tram rail_urban rail rail_electric rail_fast ship" speed="6.45" length="9.03" shape="762.87,369.59 762.02,367.26 762.13,365.23 763.21,363.50 765.24,362.08"/>
    </edge>
    <edge id=":699684243_1" function="internal">
        <lane id=":699684243_1_0" index="0" disallow="tram rail_urban rail rail_electric rail_fast ship" speed="3.65" length="4.67" shape="762.87,369.59 761.60,368.91 760.71,368.94 760.19,369.67 760.06,371.10"/>
    </edge>
    <edge id=":699684243_2" function="internal">
        <lane id=":699684243_2_0" index="0" disallow="pedestrian bicycle tram rail_urban rail rail_electric rail_fast ship" speed="6.55" length="9.12" shape="752.42,368.69 754.75,367.86 756.80,367.99 758.57,369.07 760.06,371.10"/>
    </edge>
    <edge id=":699684243_3" function="internal">
        <lane id=":699684243_3_0" index="0" disallow="pedestrian bicycle tram rail_urban rail rail_electric rail_fast ship" speed="16.67" length="14.46" shape="752.42,368.69 765.24,362.08"/>
        <lane id=":699684243_3_1" index="1" disallow="pedestrian bicycle tram rail_urban rail rail_electric rail_fast ship" speed="16.67" length="14.46" shape="750.93,365.86 763.80,359.22"/>
    </edge>
    <edge id=":7261001464_0" function="internal">
        <lane id=":7261001464_0_0" index="0" disallow="tram rail_urban rail rail_electric rail_fast ship" speed="22.22" length="0.30" shape="635.68,283.14 635.53,282.88"/>
    </edge>
    <edge id=":7261001464_1" function="internal">
        <lane id=":7261001464_1_0" index="0" disallow="tram rail_urban rail rail_electric rail_fast ship" speed="3.65" length="2.34" shape="635.68,283.14 634.40,282.48 633.50,282.52"/>
    </edge>
    <edge id=":7261001464_4" function="internal">
        <lane id=":7261001464_4_0" index="0" disallow="tram rail_urban rail rail_electric rail_fast ship" speed="3.65" length="2.34" shape="633.50,282.52 633.00,283.26 632.89,284.70"/>
    </edge>
    <edge id=":7261001464_2" function="internal">
        <lane id=":7261001464_2_0" index="0" disallow="tram rail_urban rail rail_electric rail_fast ship" speed="22.22" length="0.30" shape="632.74,284.44 632.89,284.70"/>
    </edge>
    <edge id=":7261001464_3" function="internal">
        <lane id=":7261001464_3_0" index="0" disallow="tram rail_urban rail rail_electric rail_fast ship" speed="3.65" length="2.34" shape="632.74,284.44 634.02,285.10 634.92,285.06"/>
    </edge>
    <edge id=":7261001464_5" function="internal">
        <lane id=":7261001464_5_0" index="0" disallow="tram rail_urban rail rail_electric rail_fast ship" speed="3.65" length="2.34" shape="634.92,285.06 635.42,284.32 635.53,282.88"/>
    </edge>
    <edge id=":7424568659_0" function="internal">
        <lane id=":7424568659_0_0" index="0" disallow="tram rail_urban rail rail_electric rail_fast ship" speed="4.29" length="5.74" shape="1037.02,939.40 1038.93,939.22 1039.72,938.68 1039.40,937.78 1037.97,936.51"/>
    </edge>
    <edge id=":cluster_248678559_699684258_7424568629_7424568630_0" function="internal">
        <lane id=":cluster_248678559_699684258_7424568629_7424568630_0_0" index="0" disallow="pedestrian bicycle tram rail_urban rail rail_electric rail_fast ship" speed="6.86" length="9.42" shape="700.33,380.90 697.97,381.69 695.84,381.55 693.94,380.48 692.26,378.47"/>
    </edge>
    <edge id=":cluster_248678559_699684258_7424568629_7424568630_1" function="internal">
        <lane id=":cluster_248678559_699684258_7424568629_7424568630_1_0" index="0" disallow="pedestrian bicycle tram rail_urban rail rail_electric rail_fast ship" speed="16.67" length="20.36" shape="700.33,380.90 682.63,391.04"/>
        <lane id=":cluster_248678559_699684258_7424568629_7424568630_1_1" index="1" disallow="pedestrian bicycle tram rail_urban rail rail_electric rail_fast ship" speed="16.67" length="20.36" shape="701.94,383.68 684.30,393.76"/>
    </edge>
    <edge id=":cluster_248678559_699684258_7424568629_7424568630_3" function="internal">
        <lane id=":cluster_248678559_699684258_7424568629_7424568630_3_0" index="0" disallow="pedestrian bicycle tram rail_urban rail rail_electric rail_fast ship" speed="9.94" length="11.80" shape="701.94,383.68 698.03,387.50 696.00,393.20 695.99,393.48"/>
    </edge>
    <edge id=":cluster_248678559_699684258_7424568629_7424568630_4" function="internal">
        <lane id=":cluster_248678559_699684258_7424568629_7424568630_4_0" index="0" disallow="pedestrian bicycle tram rail_urban rail rail_electric rail_fast ship" speed="5.04" length="7.76" shape="701.94,383.68 700.48,386.66 700.60,388.72 702.33,389.85 702.64,389.87"/>
    </edge>
    <edge id=":cluster_248678559_699684258_7424568629_7424568630_18" function="internal">
        <lane id=":cluster_248678559_699684258_7424568629_7424568630_18_0" index="0" disallow="pedestrian bicycle tram rail_urban rail rail_electric rail_fast ship" speed="9.94" length="11.75" shape="695.99,393.48 695.87,399.45 697.65,404.95"/>
    </edge>
    <edge id=":cluster_248678559_699684258_7424568629_7424568630_19" function="internal">
        <lane id=":cluster_248678559_699684258_7424568629_7424568630_19_0" index="0" disallow="pedestrian bicycle tram rail_urban rail rail_electric rail_fast ship" speed="5.04" length="3.02" shape="702.64,389.87 705.65,390.06"/>
    </edge>
    <edge id=":cluster_248678559_699684258_7424568629_7424568630_5" function="internal">
        <lane id=":cluster_248678559_699684258_7424568629_7424568630_5_0" index="0" disallow="pedestrian bicycle tram rail_urban rail rail_electric rail_fast ship" speed="6.77" length="10.01" shape="704.25,401.06 703.35,398.74 703.55,396.60 704.85,394.63 707.26,392.83"/>
    </edge>
    <edge id=":cluster_248678559_699684258_7424568629_7424568630_6" function="internal">
        <lane id=":cluster_248678559_699684258_7424568629_7424568630_6_0" index="0" disallow="tram rail_urban rail rail_electric rail_fast ship" speed="25.00" length="25.57" shape="704.25,401.06 692.26,378.47"/>
    </edge>
    <edge id=":cluster_248678559_699684258_7424568629_7424568630_7" function="internal">
        <lane id=":cluster_248678559_699684258_7424568629_7424568630_7_0" index="0" disallow="pedestrian bicycle tram rail_urban rail rail_electric rail_fast ship" speed="10.27" length="12.72" shape="704.25,401.06 699.76,395.26 695.25,392.31"/>
    </edge>
    <edge id=":cluster_248678559_699684258_7424568629_7424568630_8" function="internal">
        <lane id=":cluster_248678559_699684258_7424568629_7424568630_8_0" index="0" disallow="tram rail_urban rail rail_electric rail_fast ship" speed="5.09" length="7.51" shape="704.25,401.06 701.14,399.55 699.01,399.70 697.97,401.31"/>
    </edge>
    <edge id=":cluster_248678559_699684258_7424568629_7424568630_20" function="internal">
        <lane id=":cluster_248678559_699684258_7424568629_7424568630_20_0" index="0" disallow="pedestrian bicycle tram rail_urban rail rail_electric rail_fast ship" speed="10.27" length="11.44" shape="695.25,392.31 694.94,392.11 689.79,391.61 684.30,393.76"/>
    </edge>
    <edge id=":cluster_248678559_699684258_7424568629_7424568630_21" function="internal">
        <lane id=":cluster_248678559_699684258_7424568629_7424568630_21_0" index="0" disallow="tram rail_urban rail rail_electric rail_fast ship" speed="5.09" length="3.68" shape="697.97,401.31 697.84,401.50 697.65,404.95"/>
    </edge>
    <edge id=":cluster_248678559_699684258_7424568629_7424568630_9" function="internal">
        <lane id=":cluster_248678559_699684258_7424568629_7424568630_9_0" index="0" disallow="pedestrian bicycle tram rail_urban rail rail_electric rail_fast ship" speed="6.67" length="9.63" shape="689.62,402.40 691.93,401.47 694.03,401.58 695.94,402.74 697.65,404.95"/>
    </edge>
    <edge id=":cluster_248678559_699684258_7424568629_7424568630_10" function="internal">
        <lane id=":cluster_248678559_699684258_7424568629_7424568630_10_0" index="0" disallow="pedestrian bicycle tram rail_urban rail rail_electric rail_fast ship" speed="16.67" length="20.11" shape="689.62,402.40 707.26,392.83"/>
        <lane id=":cluster_248678559_699684258_7424568629_7424568630_10_1" index="1" disallow="pedestrian bicycle tram rail_urban rail rail_electric rail_fast ship" speed="16.67" length="20.11" shape="687.94,399.68 705.65,390.06"/>
    </edge>
    <edge id=":cluster_248678559_699684258_7424568629_7424568630_12" function="internal">
        <lane id=":cluster_248678559_699684258_7424568629_7424568630_12_0" index="0" disallow="pedestrian bicycle tram rail_urban rail rail_electric rail_fast ship" speed="10.07" length="11.37" shape="687.94,399.68 691.76,395.64 693.78,390.19"/>
    </edge>
    <edge id=":cluster_248678559_699684258_7424568629_7424568630_13" function="internal">
        <lane id=":cluster_248678559_699684258_7424568629_7424568630_13_0" index="0" disallow="pedestrian bicycle tram rail_urban rail rail_electric rail_fast ship" speed="4.88" length="7.01" shape="687.94,399.68 689.25,396.83 689.08,394.90 687.43,393.88"/>
    </edge>
    <edge id=":cluster_248678559_699684258_7424568629_7424568630_22" function="internal">
        <lane id=":cluster_248678559_699684258_7424568629_7424568630_22_0" index="0" disallow="pedestrian bicycle tram rail_urban rail rail_electric rail_fast ship" speed="10.07" length="12.03" shape="693.78,390.19 693.86,389.96 694.08,383.83 692.26,378.47"/>
    </edge>
    <edge id=":cluster_248678559_699684258_7424568629_7424568630_23" function="internal">
        <lane id=":cluster_248678559_699684258_7424568629_7424568630_23_0" index="0" disallow="pedestrian bicycle tram rail_urban rail rail_electric rail_fast ship" speed="4.88" length="3.13" shape="687.43,393.88 684.30,393.76"/>
    </edge>
    <edge id=":cluster_248678559_699684258_7424568629_7424568630_14" function="internal">
        <lane id=":cluster_248678559_699684258_7424568629_7424568630_14_0" index="0" disallow="pedestrian bicycle tram rail_urban rail rail_electric rail_fast ship" speed="7.98" length="14.23" shape="689.56,380.18 690.25,382.64 689.33,385.27 686.78,388.07 682.63,391.04"/>
    </edge>
    <edge id=":cluster_248678559_699684258_7424568629_7424568630_15" function="internal">
        <lane id=":cluster_248678559_699684258_7424568629_7424568630_15_0" index="0" disallow="tram rail_urban rail rail_electric rail_fast ship" speed="25.00" length="26.09" shape="689.56,380.18 691.59,385.23 693.65,392.53 695.69,399.85 697.65,404.95"/>
    </edge>
    <edge id=":cluster_248678559_699684258_7424568629_7424568630_16" function="internal">
        <lane id=":cluster_248678559_699684258_7424568629_7424568630_16_0" index="0" disallow="pedestrian bicycle tram rail_urban rail rail_electric rail_fast ship" speed="9.71" length="8.78" shape="689.56,380.18 693.89,386.07 695.00,387.04"/>
    </edge>
    <edge id=":cluster_248678559_699684258_7424568629_7424568630_17" function="internal">
        <lane id=":cluster_248678559_699684258_7424568629_7424568630_17_0" index="0" disallow="tram rail_urban rail rail_electric rail_fast ship" speed="3.65" length="2.20" shape="689.56,380.18 690.87,380.77 691.63,380.69"/>
    </edge>
    <edge id=":cluster_248678559_699684258_7424568629_7424568630_24" function="internal">
        <lane id=":cluster_248678559_699684258_7424568629_7424568630_24_0" index="0" disallow="pedestrian bicycle tram rail_urban rail rail_electric rail_fast ship" speed="9.71" length="11.99" shape="695.00,387.04 698.02,389.68 701.94,391.01 705.65,390.06"/>
    </edge>
    <edge id=":cluster_248678559_699684258_7424568629_7424568630_25" function="internal">
        <lane id=":cluster_248678559_699684258_7424568629_7424568630_25_0" index="0" disallow="tram rail_urban rail rail_electric rail_fast ship" speed="3.65" length="2.47" shape="691.63,380.69 691.76,380.68 692.23,379.91 692.26,378.47"/>
    </edge>

    <edge id="-169802060#0" from="7261001464" to="cluster_248678559_699684258_7424568629_7424568630" priority="10" type="highway.tertiary" shape="634.21,283.79 650.54,313.01 667.87,342.86 694.81,385.50">
        <lane id="-169802060#0_0" index="0" disallow="tram rail_urban rail rail_electric rail_fast ship" speed="22.22" length="111.06" shape="632.89,284.70 649.15,313.80 666.50,343.69 689.56,380.18">
            <param key="origId" value="169802060"/>
        </lane>
        <param key="origTo" value="248678559"/>
    </edge>
    <edge id="-169802060#1" from="1809626545" to="7261001464" priority="10" type="highway.tertiary" shape="828.65,0.00 811.93,7.44 797.87,15.69 755.06,39.76 722.12,55.38 691.94,71.16 659.83,86.16 641.91,95.20 619.38,106.03 610.23,110.44 587.95,121.15 576.31,131.57 580.30,149.93 585.81,179.09 590.94,206.27 592.42,208.91 593.43,210.72 632.95,281.53 634.21,283.79">
        <lane id="-169802060#1_0" index="0" disallow="tram rail_urban rail rail_electric rail_fast ship" speed="22.22" length="452.83" shape="828.00,-1.46 811.20,6.01 797.07,14.30 754.32,38.34 721.41,53.95 691.23,69.73 659.13,84.72 641.20,93.76 618.69,104.59 609.54,109.00 587.05,119.81 574.55,131.00 578.73,150.25 584.24,179.39 589.42,206.82 591.02,209.69 592.03,211.50 631.55,282.31 632.74,284.44">
            <param key="origId" value="169802060"/>
        </lane>
    </edge>
    <edge id="-41196346#1" from="699684243" to="503308934" priority="3" type="highway.residential">
        <lane id="-41196346#1_0" index="0" disallow="tram rail_urban rail rail_electric rail_fast ship" speed="13.89" length="46.95" shape="760.06,371.10 782.26,412.47">
            <param key="origId" value="41196346"/>
        </lane>
    </edge>
    <edge id="-41196347#0" from="503308962" to="503308934" priority="3" type="highway.residential">
        <lane id="-41196347#0_0" index="0" disallow="tram rail_urban rail rail_electric rail_fast ship" speed="13.89" length="35.43" shape="819.01,396.04 787.19,411.64">
            <param key="origId" value="41196347"/>
        </lane>
    </edge>
    <edge id="-41196347#1" from="249072289" to="503308962" priority="3" type="highway.residential" shape="1068.80,302.87 1018.47,315.95 984.90,325.78 908.75,353.82 826.03,394.38">
        <lane id="-41196347#1_0" index="0" disallow="tram rail_urban rail rail_electric rail_fast ship" speed="13.89" length="253.21" shape="1068.40,301.32 1018.04,314.41 984.40,324.26 908.12,352.35 831.94,389.70">
            <param key="origId" value="41196347"/>
        </lane>
    </edge>
    <edge id="-41196358#0" from="503308964" to="503308961" priority="3" type="highway.residential" shape="844.81,428.10 863.01,460.63 878.24,488.08">