<?xml version="1.0" encoding="UTF-8"?>
<!-- generated on 2021-03-22 13:04:59.769967 by $Id$ UNKNOWN
  options: -n simpleMap.net.xml -r bus_routes.rou.xml -o bus_trips.xml -e 50 -l -p 30 <doubleminus>vehicle-class bus <doubleminus>trip-attributes=accel="20.8"
-->
<routes xmlns:xsi="http://www.w3.org/2001/XMLSchema-instance" xsi:noNamespaceSchemaLocation="http://sumo.dlr.de/xsd/routes_file.xsd">
    <vType id="bus" vClass="bus" accel="20.8"/>
    <trip id="0" depart="0.00" from="-gneE5" to="-gneE0" type="bus"/>
    <trip id="1" depart="30.00" from="-gneE3" to="-gneE0" type="bus"/>
</routes>
