<?xml version="1.0" encoding="UTF-8"?>
<!-- generated on 2021-03-22 13:05:00.099697 by $Id$ UNKNOWN
  options: -n simpleMap.net.xml -r delivery_routes.rou.xml -o delivery_trips.xml -e 50 -l -p 30 <doubleminus>vehicle-class delivery <doubleminus>trip-attributes=color="115,211,230"
-->
<routes xmlns:xsi="http://www.w3.org/2001/XMLSchema-instance" xsi:noNamespaceSchemaLocation="http://sumo.dlr.de/xsd/routes_file.xsd">
    <vType id="delivery" vClass="delivery" color="115,211,230"/>
    <trip id="0" depart="0.00" from="-gneE5" to="-gneE0" type="delivery"/>
    <trip id="1" depart="30.00" from="-gneE3" to="-gneE0" type="delivery"/>
</routes>
