<?xml version="1.0" encoding="UTF-8"?>

<!-- generated on Mon Mar 22 13:05:00 2021 by Eclipse SUMO duarouter Version 1.8.0
<configuration xmlns:xsi="http://www.w3.org/2001/XMLSchema-instance" xsi:noNamespaceSchemaLocation="http://sumo.dlr.de/xsd/duarouterConfiguration.xsd">

    <input>
        <net-file value="simpleMap.net.xml"/>
        <route-files value="delivery_trips.xml"/>
    </input>

    <output>
        <output-file value="delivery_routes.rou.xml"/>
        <alternatives-output value="delivery_routes.rou.alt.xml"/>
    </output>

    <time>
        <begin value="0"/>
        <end value="50"/>
    </time>

    <report>
        <no-warnings value="true"/>
        <ignore-errors value="true"/>
        <no-step-log value="true"/>
    </report>

</configuration>
-->

<routes xmlns:xsi="http://www.w3.org/2001/XMLSchema-instance" xsi:noNamespaceSchemaLocation="http://sumo.dlr.de/xsd/routes_file.xsd">
    <vType id="delivery" vClass="delivery" color="115,211,230"/>
    <vehicle id="delivery0" type="delivery" depart="0.00">
        <route edges="-gneE5 -gneE0"/>
    </vehicle>
    <vehicle id="delivery1" type="delivery" depart="30.00">
        <route edges="-gneE3 -gneE0"/>
    </vehicle>
</routes>
