<?xml version="1.0" encoding="UTF-8"?>

<!-- generated on Mon Mar 22 13:04:59 2021 by Eclipse SUMO duarouter Version 1.8.0
<configuration xmlns:xsi="http://www.w3.org/2001/XMLSchema-instance" xsi:noNamespaceSchemaLocation="http://sumo.dlr.de/xsd/duarouterConfiguration.xsd">

    <input>
        <net-file value="simpleMap.net.xml"/>
        <route-files value="passenger_trips.xml"/>
    </input>

    <output>
        <output-file value="passenger_routes.rou.xml"/>
        <alternatives-output value="passenger_routes.rou.alt.xml"/>
    </output>

    <time>
        <begin value="0"/>
        <end value="50"/>
    </time>

    <report>
        <no-warnings value="true"/>
        <ignore-errors value="true"/>
        <no-step-log value="true"/>
    </report>

</configuration>
-->

<routes xmlns:xsi="http://www.w3.org/2001/XMLSchema-instance" xsi:noNamespaceSchemaLocation="http://sumo.dlr.de/xsd/routes_file.xsd">
    <vType id="passenger" vClass="passenger" color="white"/>
    <vehicle id="passenger0" type="passenger" depart="0.00">
        <route edges="-gneE5 -gneE0"/>
    </vehicle>
    <vehicle id="passenger1" type="passenger" depart="1.00">
        <route edges="-gneE3 -gneE0"/>
    </vehicle>
    <vehicle id="passenger2" type="passenger" depart="2.00">
        <route edges="-gneE5 gneE3"/>
    </vehicle>
    <vehicle id="passenger4" type="passenger" depart="4.00">
        <route edges="-gneE3 -gneE0"/>
    </vehicle>
    <vehicle id="passenger5" type="passenger" depart="5.00">
        <route edges="-gneE1 gneE3"/>
    </vehicle>
    <vehicle id="passenger6" type="passenger" depart="6.00">
        <route edges="-gneE1 -gneE0"/>
    </vehicle>
    <vehicle id="passenger7" type="passenger" depart="7.00">
        <route edges="-gneE5 gneE3"/>
    </vehicle>
    <vehicle id="passenger8" type="passenger" depart="8.00">
        <route edges="-gneE1 gneE3"/>
    </vehicle>
    <vehicle id="passenger10" type="passenger" depart="10.00">
        <route edges="gneE0 gneE3"/>
    </vehicle>
    <vehicle id="passenger11" type="passenger" depart="11.00">
        <route edges="-gneE3 -gneE0"/>
    </vehicle>
    <vehicle id="passenger12" type="passenger" depart="12.00">
        <route edges="gneE0 gneE1"/>
    </vehicle>
    <vehicle id="passenger13" type="passenger" depart="13.00">
        <route edges="-gneE1 -gneE0"/>
    </vehicle>
    <vehicle id="passenger14" type="passenger" depart="14.00">
        <route edges="gneE0 gneE3"/>
    </vehicle>
    <vehicle id="passenger15" type="passenger" depart="15.00">
        <route edges="gneE0 gneE3"/>
    </vehicle>
    <vehicle id="passenger18" type="passenger" depart="18.00">
        <route edges="gneE0 gneE3"/>
    </vehicle>
    <vehicle id="passenger19" type="passenger" depart="19.00">
        <route edges="gneE0 gneE3"/>
    </vehicle>
    <vehicle id="passenger20" type="passenger" depart="20.00">
        <route edges="-gneE5 -gneE0"/>
    </vehicle>
    <vehicle id="passenger22" type="passenger" depart="22.00">
        <route edges="-gneE1 -gneE0"/>
    </vehicle>
    <vehicle id="passenger24" type="passenger" depart="24.00">
        <route edges="-gneE5 gneE1"/>
    </vehicle>
    <vehicle id="passenger25" type="passenger" depart="25.00">
        <route edges="-gneE3 -gneE0"/>
    </vehicle>
    <vehicle id="passenger26" type="passenger" depart="26.00">
        <route edges="-gneE3 gneE5"/>
    </vehicle>
    <vehicle id="passenger27" type="passenger" depart="27.00">
        <route edges="-gneE5 gneE3"/>
    </vehicle>
    <vehicle id="passenger28" type="passenger" depart="28.00">
        <route edges="-gneE1 gneE3"/>
    </vehicle>
    <vehicle id="passenger30" type="passenger" depart="30.00">
        <route edges="gneE0 gneE3"/>
    </vehicle>
    <vehicle id="passenger31" type="passenger" depart="31.00">
        <route edges="-gneE5 gneE3"/>
    </vehicle>
    <vehicle id="passenger32" type="passenger" depart="32.00">
        <route edges="gneE0 gneE5"/>
    </vehicle>
    <vehicle id="passenger33" type="passenger" depart="33.00">
        <route edges="-gneE1 -gneE0"/>
    </vehicle>
    <vehicle id="passenger34" type="passenger" depart="34.00">
        <route edges="-gneE3 gneE1"/>
    </vehicle>
    <vehicle id="passenger35" type="passenger" depart="35.00">
        <route edges="-gneE1 gneE5"/>
    </vehicle>
    <vehicle id="passenger36" type="passenger" depart="36.00">
        <route edges="gneE0 gneE1"/>
    </vehicle>
    <vehicle id="passenger37" type="passenger" depart="37.00">
        <route edges="-gneE5 gneE1"/>
    </vehicle>
    <vehicle id="passenger38" type="passenger" depart="38.00">
        <route edges="gneE0 gneE1"/>
    </vehicle>
    <vehicle id="passenger39" type="passenger" depart="39.00">
        <route edges="-gneE3 -gneE0"/>
    </vehicle>
    <vehicle id="passenger40" type="passenger" depart="40.00">
        <route edges="-gneE5 gneE1"/>
    </vehicle>
    <vehicle id="passenger42" type="passenger" depart="42.00">
        <route edges="-gneE3 -gneE0"/>
    </vehicle>
    <vehicle id="passenger43" type="passenger" depart="43.00">
        <route edges="gneE0 gneE3"/>
    </vehicle>
    <vehicle id="passenger44" type="passenger" depart="44.00">
        <route edges="-gneE1 -gneE0"/>
    </vehicle>
    <vehicle id="passenger45" type="passenger" depart="45.00">
        <route edges="-gneE1 gneE3"/>
    </vehicle>
    <vehicle id="passenger46" type="passenger" depart="46.00">
        <route edges="gneE0 gneE1"/>
    </vehicle>
    <vehicle id="passenger48" type="passenger" depart="48.00">
        <route edges="gneE0 gneE3"/>
    </vehicle>
    <vehicle id="passenger49" type="passenger" depart="49.00">
        <route edges="gneE0 gneE5"/>
    </vehicle>
</routes>
