<?xml version="1.0" encoding="UTF-8"?>

<!-- generated on Fri Apr 30 12:24:51 2021 by Eclipse SUMO polyconvert Version 1.8.0
<configuration xmlns:xsi="http://www.w3.org/2001/XMLSchema-instance" xsi:noNamespaceSchemaLocation="http://sumo.dlr.de/xsd/polyconvertConfiguration.xsd">

    <input>
        <net-file value="osm.net.xml"/>
        <osm-files value="osm_bbox.osm.xml"/>
        <osm.keep-full-type value="true"/>
        <type-file value="/usr/local/opt/sumo/share/sumo/data/typemap/osmPolyconvert.typ.xml"/>
    </input>

    <output>
        <output-file value="osm.poly.xml"/>
    </output>

    <processing>
        <poi-layer-offset value="5"/>
    </processing>

    <report>
        <verbose value="true"/>
    </report>

</configuration>
-->

<additional xmlns:xsi="http://www.w3.org/2001/XMLSchema-instance" xsi:noNamespaceSchemaLocation="http://sumo.dlr.de/xsd/additional_file.xsd">
    <location netOffset="-776096.49,-1424803.84" convBoundary="-0.00,-0.00,4499.91,4637.10" origBoundary="77.544030,12.876128,77.585763,12.917733" projParameter="+proj=utm +zone=43 +ellps=WGS84 +datum=WGS84 +units=m +no_defs"/>

    <poly id="331975438" type="building.train_station" color="255,230,230" fill="1" layer="-1.00" shape="3119.314748,3420.230609 3151.190982,3425.188833 3130.114772,3559.176133 3098.238585,3554.228973 3118.305541,3426.652017 3119.314748,3420.230609"/>
    <poly id="334633598" type="landuse.residential" color="235,235,227" fill="1" layer="-3.00" shape="4478.277339,3724.433999 4484.097102,3402.646901 3151.268236,3401.267823 3131.270518,3531.668275 3115.951771,3714.121493 3113.893584,3846.650322 3112.138583,3956.544512 3172.202477,4270.843224 3185.740822,4344.604378 3200.337214,4558.364735 3238.224508,4611.194169 3601.481410,4606.954777 3642.983817,4565.938125 4486.488329,4560.326692 4483.750329,4275.404326 4478.011609,4077.937076 4478.277339,3724.433999"/>
    <poly id="347223422" type="building.yes" color="255,230,230" fill="1" layer="-1.00" shape="3441.386232,3322.043887 3448.532121,3321.993927 3448.458343,3313.126277 3441.312340,3313.187306 3441.386232,3322.043887"/>
    <poly id="347223496" type="building.yes" color="255,230,230" fill="1" layer="-1.00" shape="3388.897852,3347.464094 3403.537295,3347.345505 3403.447207,3335.776664 3388.807869,3335.884185 3388.897852,3347.464094"/>
    <poly id="347223538" type="building.yes" color="255,230,230" fill="1" layer="-1.00" shape="3389.061391,3320.377951 3392.992709,3320.351030 3392.926880,3311.771278 3388.995561,3311.798199 3389.061391,3320.377951"/>
    <poly id="347223637" type="building.yes" color="255,230,230" fill="1" layer="-1.00" shape="3433.487274,3286.806838 3437.027704,3286.775994 3436.989928,3280.808993 3433.438639,3280.839728 3433.487274,3286.806838"/>
    <poly id="347223658" type="building.yes" color="255,230,230" fill="1" layer="-1.00" shape="3388.360252,3287.482550 3395.864578,3287.425106 3395.791153,3277.439414 3388.275967,3277.496749 3388.360252,3287.482550"/>
    <poly id="347223700" type="building.yes" color="255,230,230" fill="1" layer="-1.00" shape="3450.450540,3320.197758 3456.901397,3320.151886 3456.832807,3311.848847 3450.381948,3311.894720 3450.450540,3320.197758"/>
    <poly id="347223767" type="building.yes" color="255,230,230" fill="1" layer="-1.00" shape="3464.187877,3286.661477 3469.129234,3286.622576 3469.072462,3279.304868 3464.120245,3279.343660 3464.187877,3286.661477"/>
    <poly id="347223777" type="building.yes" color="255,230,230" fill="1" layer="-1.00" shape="3450.053247,3347.846124 3465.648325,3347.726101 3465.535298,3334.120181 3449.951071,3334.240314 3450.053247,3347.846124"/>
    <poly id="347223793" type="building.yes" color="255,230,230" fill="1" layer="-1.00" shape="3396.276943,3309.070696 3403.086231,3309.017342 3403.008362,3299.474397 3396.199073,3299.527751 3396.276943,3309.070696"/>
    <poly id="347224109" type="building.yes" color="255,230,230" fill="1" layer="-1.00" shape="3420.276769,3347.890073 3430.420054,3347.814880 3430.347426,3337.751704 3420.193279,3337.826789 3420.276769,3347.890073"/>
    <poly id="347224118" type="building.yes" color="255,230,230" fill="1" layer="-1.00" shape="3413.682494,3320.060766 3419.438316,3320.018971 3419.375012,3312.269477 3413.619188,3312.311273 3413.682494,3320.060766"/>
    <poly id="347224203" type="building.yes" color="255,230,230" fill="1" layer="-1.00" shape="3421.222134,3288.388347 3426.500204,3288.341752 3426.443198,3281.046183 3421.165238,3281.081710 3421.222134,3288.388347"/>
    <poly id="347224234" type="building.yes" color="255,230,230" fill="1" layer="-1.00" shape="3459.365600,3321.316839 3466.413767,3321.265901 3466.337145,3311.601196 3459.288975,3311.652134 3459.365600,3321.316839"/>
    <poly id="347224333" type="building.yes" color="255,230,230" fill="1" layer="-1.00" shape="3458.442194,3287.854625 3462.916650,3287.811031 3462.862725,3281.290378 3458.388269,3281.333972 3458.442194,3287.854625"/>
    <poly id="347224377" type="building.yes" color="255,230,230" fill="1" layer="-1.00" shape="3395.463518,3367.333923 3409.657657,3367.221935 3409.608243,3361.332307 3395.414212,3361.433227 3395.463518,3367.333923"/>
    <poly id="347224394" type="building.yes" color="255,230,230" fill="1" layer="-1.00" shape="3422.833660,3309.569990 3428.622059,3309.528524 3428.541085,3300.295499 3422.763542,3300.337075 3422.833660,3309.569990"/>
    <poly id="347224523" type="building.yes" color="255,230,230" fill="1" layer="-1.00" shape="3411.164106,3286.460772 3417.234822,3286.422139 3417.181776,3279.812938 3411.110948,3279.862640 3411.164106,3286.460772"/>
    <poly id="347224610" type="building.yes" color="255,230,230" fill="1" layer="-1.00" shape="3398.675993,3286.457070 3406.462743,3286.391397 3406.416772,3280.158640 3398.630131,3280.213245 3398.675993,3286.457070"/>
    <poly id="347224750" type="building.yes" color="255,230,230" fill="1" layer="-1.00" shape="3445.389564,3287.834160 3451.959979,3287.778416 3451.897057,3278.910875 3445.315893,3278.955441 3445.389564,3287.834160"/>
    <poly id="347224853" type="building.yes" color="255,230,230" fill="1" layer="-1.00" shape="3388.256102,3308.658018 3393.903455,3308.604058 3393.840143,3300.854566 3388.203758,3300.897567 3388.256102,3308.658018"/>
    <poly id="347224868" type="building.yes" color="255,230,230" fill="1" layer="-1.00" shape="3431.773916,3321.150272 3439.039244,3321.101510 3438.971135,3311.669358 3431.694946,3311.718011 3431.773916,3321.150272"/>
    <poly id="347224930" type="building.yes" color="255,230,230" fill="1" layer="-1.00" shape="3395.353336,3321.016795 3401.587027,3320.968728 3401.516793,3311.746883 3395.283099,3311.794950 3395.353336,3321.016795"/>
    <poly id="347225325" type="building.yes" color="255,230,230" fill="1" layer="-1.00" shape="3449.754484,3309.497338 3456.585490,3309.444215 3456.508350,3298.750014 3449.666483,3298.803028 3449.754484,3309.497338"/>
    <poly id="347225370" type="building.yes" color="255,230,230" fill="1" layer="-1.00" shape="3405.788062,3308.147835 3411.326723,3308.103856 3411.262900,3299.324867 3405.724237,3299.368846 3405.788062,3308.147835"/>
    <poly id="347225474" type="building.yes" color="255,230,230" fill="1" layer="-1.00" shape="3453.848336,3368.939020 3464.903922,3368.850869 3464.783129,3352.776305 3453.727536,3352.864457 3453.848336,3368.939020"/>
    <poly id="347225650" type="building.yes" color="255,230,230" fill="1" layer="-1.00" shape="3428.799993,3286.416576 3431.297817,3286.397395 3431.253367,3281.094515 3428.755543,3281.113696 3428.799993,3286.416576"/>
    <poly id="347225776" type="building.yes" color="255,230,230" fill="1" layer="-1.00" shape="3459.258822,3309.249684 3465.959531,3309.195254 3465.880572,3299.762991 3459.190830,3299.806462 3459.258822,3309.249684"/>
    <poly id="347225884" type="building.yes" color="255,230,230" fill="1" layer="-1.00" shape="3414.717430,3308.923880 3420.266949,3308.880012 3420.190644,3299.182104 3414.641123,3299.225972 3414.717430,3308.923880"/>
    <poly id="347226020" type="building.yes" color="255,230,230" fill="1" layer="-1.00" shape="3434.595810,3347.236931 3443.197017,3347.168386 3443.086940,3334.348453 3434.496587,3334.417108 3434.595810,3347.236931"/>
    <poly id="347226509" type="building.yes" color="255,230,230" fill="1" layer="-1.00" shape="3422.386173,3320.602081 3429.076019,3320.547533 3429.003346,3311.569198 3422.313609,3311.612677 3422.386173,3320.602081"/>
    <poly id="347226674" type="building.yes" color="255,230,230" fill="1" layer="-1.00" shape="3417.004915,3365.502453 3430.569174,3365.395217 3430.450765,3350.161985 3416.886610,3350.258155 3417.004915,3365.502453"/>
    <poly id="347227094" type="building.yes" color="255,230,230" fill="1" layer="-1.00" shape="3439.203258,3288.569022 3442.537383,3288.536106 3442.479602,3281.318017 3439.145588,3281.339865 3439.203258,3288.569022"/>
    <poly id="347517090" type="building.yes" color="255,230,230" fill="1" layer="-1.00" shape="3347.707820,3344.316050 3373.930116,3344.590548 3374.114113,3327.356729 3347.891912,3327.071165 3347.707820,3344.316050"/>
    <poly id="347517165" type="building.yes" color="255,230,230" fill="1" layer="-1.00" shape="3346.780244,3371.793022 3377.367371,3372.122447 3377.596148,3351.512790 3346.998141,3351.183261 3346.780244,3371.793022"/>
    <poly id="347517324" type="building.yes" color="255,230,230" fill="1" layer="-1.00" shape="3290.467349,3462.309584 3297.090783,3462.376113 3297.230832,3449.514426 3290.596537,3449.447789 3290.467349,3462.309584"/>
    <poly id="347517445" type="building.yes" color="255,230,230" fill="1" layer="-1.00" shape="3263.905614,3461.245778 3279.237122,3461.410832 3279.349813,3451.272040 3264.007442,3451.106878 3263.905614,3461.245778"/>
    <poly id="347518954" type="building.yes" color="255,230,230" fill="1" layer="-1.00" shape="3353.885240,3296.899772 3376.383122,3297.147920 3376.639837,3272.675188 3354.152793,3272.427152 3353.885240,3296.899772"/>
    <poly id="347519058" type="building.yes" color="255,230,230" fill="1" layer="-1.00" shape="3347.784557,3323.704870 3378.871212,3324.039304 3379.097243,3302.621525 3348.021422,3302.287205 3347.784557,3323.704870"/>
    <poly id="347539908" type="building.yes" color="255,230,230" fill="1" layer="-1.00" shape="3284.309366,3442.930955 3292.118449,3442.799064 3291.959099,3433.797726 3284.150013,3433.929618 3284.309366,3442.930955"/>
    <poly id="347539949" type="building.yes" color="255,230,230" fill="1" layer="-1.00" shape="3263.461740,3431.917460 3278.417455,3431.658084 3278.232232,3420.907462 3263.276511,3421.166839 3263.461740,3431.917460"/>
    <poly id="347539988" type="building.yes" color="255,230,230" fill="1" layer="-1.00" shape="3266.655255,3444.801554 3278.157089,3444.607119 3277.986468,3434.565109 3266.473771,3434.759436 3266.655255,3444.801554"/>
    <poly id="347540023" type="building.yes" color="255,230,230" fill="1" layer="-1.00" shape="3257.198558,3443.555321 3263.899892,3443.434437 3263.713441,3432.805571 3257.012105,3432.926456 3257.198558,3443.555321"/>
    <poly id="347540059" type="building.yes" color="255,230,230" fill="1" layer="-1.00" shape="3252.130443,3431.349800 3261.286377,3431.187147 3261.148918,3423.248731 3251.993094,3423.400316 3252.130443,3431.349800"/>
    <poly id="347540099" type="building.yes" color="255,230,230" fill="1" layer="-1.00" shape="3236.546244,3443.370058 3241.596702,3443.276869 3241.409131,3432.758691 3236.369641,3432.840921 3236.546244,3443.370058"/>
    <poly id="347540103" type="building.yes" color="255,230,230" fill="1" layer="-1.00" shape="3122.450510,3291.742024 3137.122194,3291.656823 3137.060788,3280.464666 3122.389209,3280.538799 3122.450510,3291.742024"/>
    <poly id="347540133" type="building.yes" color="255,230,230" fill="1" layer="-1.00" shape="3208.929606,3445.705207 3218.704554,3445.537687 3218.533245,3435.562094 3208.747436,3435.729506 3208.929606,3445.705207"/>
    <poly id="347540135" type="building.yes" color="255,230,230" fill="1" layer="-1.00" shape="3110.647406,3290.571930 3118.575071,3290.529731 3118.510296,3280.754472 3110.582627,3280.796672 3110.647406,3290.571930"/>
    <poly id="347540167" type="building.yes" color="255,230,230" fill="1" layer="-1.00" shape="3097.285810,3289.961828 3108.971059,3289.890919 3108.903338,3278.244840 3097.218084,3278.315750 3097.285810,3289.961828"/>
    <poly id="347540197" type="building.yes" color="255,230,230" fill="1" layer="-1.00" shape="3191.281179,3447.011351 3198.199670,3446.892631 3198.018274,3436.839450 3191.099780,3436.958170 3191.281179,3447.011351"/>
    <poly id="347540233" type="building.yes" color="255,230,230" fill="1" layer="-1.00" shape="3084.410499,3289.589078 3092.707452,3289.539508 3092.636641,3277.118515 3084.339685,3277.168087 3084.410499,3289.589078"/>
    <poly id="347540307" type="building.yes" color="255,230,230" fill="1" layer="-1.00" shape="3169.708820,3435.713912 3190.040722,3435.364558 3189.815399,3423.196609 3169.494347,3423.546074 3169.708820,3435.713912"/>
    <poly id="347540374" type="building.yes" color="255,230,230" fill="1" layer="-1.00" shape="3183.142805,3447.494196 3189.996146,3447.374821 3189.816636,3437.133473 3182.963181,3437.263917 3183.142805,3447.494196"/>
    <poly id="347540381" type="building.yes" color="255,230,230" fill="1" layer="-1.00" shape="3327.113070,3434.604702 3333.814410,3434.483834 3333.635396,3424.198200 3326.934054,3424.319069 3327.113070,3434.604702"/>
    <poly id="347540434" type="building.yes" color="255,230,230" fill="1" layer="-1.00" shape="3166.106246,3447.345288 3178.151086,3447.145194 3177.963380,3436.638090 3165.918425,3436.849254 3166.106246,3447.345288"/>
    <poly id="347540441" type="building.yes" color="255,230,230" fill="1" layer="-1.00" shape="3322.055515,3447.295225 3331.711032,3447.126544 3331.542615,3437.947996 3321.897954,3438.116786 3322.055515,3447.295225"/>
    <poly id="347540470" type="building.yes" color="255,230,230" fill="1" layer="-1.00" shape="3319.003257,3432.242860 3324.889905,3432.147016 3324.782627,3426.611043 3318.906725,3426.718065 3319.003257,3432.242860"/>
    <poly id="347540514" type="building.yes" color="255,230,230" fill="1" layer="-1.00" shape="3309.576116,3447.513031 3320.143934,3447.331371 3319.976403,3438.064275 3309.408582,3438.245935 3309.576116,3447.513031"/>
    <poly id="347540537" type="building.yes" color="255,230,230" fill="1" layer="-1.00" shape="3307.085026,3432.809469 3316.555848,3432.649997 3316.441862,3425.619536 3306.960180,3425.778900 3307.085026,3432.809469"/>
    <poly id="347540608" type="building.yes" color="255,230,230" fill="1" layer="-1.00" shape="3300.673076,3433.309623 3304.539561,3433.248832 3304.408748,3425.731132 3300.542263,3425.791924 3300.673076,3433.309623"/>
    <poly id="347540692" type="building.yes" color="255,230,230" fill="1" layer="-1.00" shape="3294.595355,3444.860783 3305.358730,3444.670012 3305.220840,3436.775868 3294.457573,3436.955571 3294.595355,3444.860783"/>
    <poly id="348110195" type="building.yes" color="255,230,230" fill="1" layer="-1.00" shape="3290.852570,3404.495956 3290.501036,3413.547511 3296.579908,3413.774614 3296.920586,3404.722950 3290.852570,3404.495956"/>
    <poly id="348110208" type="building.yes" color="255,230,230" fill="1" layer="-1.00" shape="3165.050055,3355.688004 3201.418984,3356.628765 3201.738343,3344.289168 3165.369397,3343.348409 3165.050055,3355.688004"/>
    <poly id="348110232" type="building.yes" color="255,230,230" fill="1" layer="-1.00" shape="3194.350267,3373.870927 3208.707997,3374.767831 3209.377755,3364.302544 3195.020130,3363.394572 3194.350267,3373.870927"/>
    <poly id="348110439" type="building.yes" color="255,230,230" fill="1" layer="-1.00" shape="3263.083452,3375.513109 3268.062252,3374.987481 3267.020526,3365.180260 3262.041836,3365.694820 3263.083452,3375.513109"/>
    <poly id="348110483" type="building.yes" color="255,230,230" fill="1" layer="-1.00" shape="3235.504636,3356.771761 3247.750601,3357.093989 3248.053787,3345.285575 3235.807706,3344.974417 3235.504636,3356.771761"/>
    <poly id="348110544" type="building.yes" color="255,230,230" fill="1" layer="-1.00" shape="3171.829554,3418.089979 3189.633866,3417.482780 3189.289704,3407.416896 3171.474527,3408.023987 3171.829554,3418.089979"/>
    <poly id="348110797" type="building.yes" color="255,230,230" fill="1" layer="-1.00" shape="3376.338667,3436.682218 3410.986285,3438.170540 3412.046445,3413.716942 3377.398796,3412.228625 3376.338667,3436.682218"/>
    <poly id="348110972" type="building.yes" color="255,230,230" fill="1" layer="-1.00" shape="3220.701402,3415.381515 3229.645588,3415.759143 3230.083112,3405.712175 3221.128176,3405.323369 3220.701402,3415.381515"/>
    <poly id="348111042" type="building.yes" color="255,230,230" fill="1" layer="-1.00" shape="3310.089841,3413.666778 3328.675255,3414.218772 3328.949683,3405.277138 3310.353405,3404.725037 3310.089841,3413.666778"/>
    <poly id="348111466" type="building.yes" color="255,230,230" fill="1" layer="-1.00" shape="3191.246232,3415.882781 3200.714495,3415.977848 3200.829077,3404.566056 3191.360811,3404.470990 3191.246232,3415.882781"/>
    <poly id="348111489" type="building.yes" color="255,230,230" fill="1" layer="-1.00" shape="3271.713062,3373.695772 3289.148019,3373.107061 3288.779429,3362.232829 3271.344466,3362.821542 3271.713062,3373.695772"/>
    <poly id="348111578" type="building.yes" color="255,230,230" fill="1" layer="-1.00" shape="3270.746360,3413.725476 3287.204248,3414.189656 3287.405361,3407.140221 3270.947470,3406.676042 3270.746360,3413.725476"/>
    <poly id="348111802" type="building.yes" color="255,230,230" fill="1" layer="-1.00" shape="3213.103534,3375.011221 3226.889563,3375.526021 3227.317149,3364.305557 3213.531114,3363.790758 3213.103534,3375.011221"/>
    <poly id="348112224" type="building.yes" color="255,230,230" fill="1" layer="-1.00" shape="3253.498440,3356.764267 3263.654568,3356.489886 3263.335180,3345.040522 3253.179048,3345.314903 3253.498440,3356.764267"/>
    <poly id="348112290" type="building.yes" color="255,230,230" fill="1" layer="-1.00" shape="3164.095782,3373.943555 3190.699462,3375.162646 3191.196928,3364.551723 3164.593237,3363.332633 3164.095782,3373.943555"/>
    <poly id="348112959" type="building.yes" color="255,230,230" fill="1" layer="-1.00" shape="3346.192948,3432.416369 3367.622470,3434.148221 3369.503541,3411.208369 3348.074001,3409.476518 3346.192948,3432.416369"/>
    <poly id="348113121" type="building.yes" color="255,230,230" fill="1" layer="-1.00" shape="3203.265515,3414.985043 3218.983299,3414.534029 3218.648073,3402.497811 3202.930393,3402.937758 3203.265515,3414.985043"/>
    <poly id="348113564" type="building.yes" color="255,230,230" fill="1" layer="-1.00" shape="3230.730148,3374.800772 3254.458326,3375.802864 3254.954962,3364.195648 3231.215916,3363.193448 3230.730148,3374.800772"/>
    <poly id="348114112" type="building.yes" color="255,230,230" fill="1" layer="-1.00" shape="3294.310704,3373.734543 3302.921196,3373.821026 3303.055050,3360.494346 3294.444554,3360.407864 3294.310704,3373.734543"/>
    <poly id="97200646" type="landuse.residential" color="235,235,227" fill="1" layer="-3.00" shape="3311.762044,3373.677360 3312.105396,3344.899360 3258.521909,3342.058692 3271.991643,3263.775610 3355.907570,3257.733027 3336.591314,3375.332630 3311.762044,3373.677360"/>
    <poly id="97200769" type="landuse.residential" color="235,235,227" fill="1" layer="-3.00" shape="3162.508630,3342.744062 3258.521909,3342.058692 3271.991643,3263.775610 3166.518267,3265.683326 3162.508630,3342.744062"/>
    <poi id="1734975206" type="building.yes" color="255,230,230" layer="4.00" x="3399.98" y="3423.91"/>
    <poi id="8187964077" type="amenity.bank" color="237,199,199" layer="4.00" x="3359.35" y="3423.04"/>
    <poi id="8187964088" type="amenity.bank" color="237,199,199" layer="4.00" x="3369.70" y="3335.28"/>
    <poi id="8196824767" type="tourism.hotel" color="207,245,201" layer="3.00" x="3177.94" y="3378.55"/>
</additional>
