<?xml version="1.0" encoding="UTF-8"?>

<!-- generated on Fri Apr 30 08:05:39 2021 by Eclipse SUMO duarouter Version 1.8.0
<configuration xmlns:xsi="http://www.w3.org/2001/XMLSchema-instance" xsi:noNamespaceSchemaLocation="http://sumo.dlr.de/xsd/duarouterConfiguration.xsd">

    <input>
        <net-file value="osm.net.xml"/>
        <route-files value="trips.xml"/>
    </input>

    <output>
        <output-file value="routes.rou.xml"/>
        <alternatives-output value="routes.rou.alt.xml"/>
    </output>

    <time>
        <begin value="0"/>
        <end value="5400"/>
    </time>

    <report>
        <no-warnings value="true"/>
        <ignore-errors value="true"/>
        <no-step-log value="true"/>
    </report>

</configuration>
-->

<routes xmlns:xsi="http://www.w3.org/2001/XMLSchema-instance" xsi:noNamespaceSchemaLocation="http://sumo.dlr.de/xsd/routes_file.xsd">
    <vType id="passenger" vClass="passenger" color="white"/>
    <vehicle id="0" type="passenger" depart="0.00">
        <route edges="660054260#0 660054260#1 55675974#0 92194630#1 -118416394#2 -118416394#1 -118416391"/>
    </vehicle>
    <vehicle id="1" type="passenger" depart="5.00">
        <route edges="118416394#0 -118416391 118416391"/>
    </vehicle>
    <vehicle id="2" type="passenger" depart="10.00">
        <route edges="660054260#0 660054260#1 458798178#0 458798178#1 458798178#2"/>
    </vehicle>
    <vehicle id="3" type="passenger" depart="15.00">
        <route edges="660054260#0 660054260#1 55675974#0 92194630#1 -118416394#2 -118416392"/>
    </vehicle>
    <vehicle id="4" type="passenger" depart="20.00">
        <route edges="462900086#0 462900086#3 462900086#4 462900086#5 55675974#0 92194630#1 -118416394#2 -118416394#1 -118416391"/>
    </vehicle>
    <vehicle id="5" type="passenger" depart="25.00">
        <route edges="118416392 118416394#2 92194630#2 92194630#3 458798178#0 458798178#1 458798178#2"/>
    </vehicle>
    <vehicle id="6" type="passenger" depart="30.00">
        <route edges="-118416391 118416391 118416394#1 118416394#2 92194630#2 92194630#3 55675974#0 55675976#1 -655019293#3 -655019293#2"/>
    </vehicle>
    <vehicle id="7" type="passenger" depart="35.00">
        <route edges="660054260#0 660054260#1 458798178#0 458798178#1 458798178#2"/>
    </vehicle>
    <vehicle id="8" type="passenger" depart="40.00">
        <route edges="118416392 118416394#2 92194630#2 92194630#3 458798178#0 458798178#1 458798178#2"/>
    </vehicle>
    <vehicle id="9" type="passenger" depart="45.00">
        <route edges="660054260#0 660054260#1 55675974#0 92194630#1 -118416394#2 -118416394#1 -118416391"/>
    </vehicle>
    <vehicle id="11" type="passenger" depart="55.00">
        <route edges="249195004#0 55675974#0 92194630#1 -118416394#2"/>
    </vehicle>
    <vehicle id="12" type="passenger" depart="60.00">
        <route edges="92194630#0 92194630#1 -118416394#2 -118416392 118416392"/>
    </vehicle>
    <vehicle id="13" type="passenger" depart="65.00">
        <route edges="-118416392"/>
    </vehicle>
    <vehicle id="14" type="passenger" depart="70.00">
        <route edges="660054260#0 660054260#1 458798178#0 458798178#1 458798178#2"/>
    </vehicle>
    <vehicle id="15" type="passenger" depart="75.00">
        <route edges="660054260#0 660054260#1 55675974#0"/>
    </vehicle>
    <vehicle id="16" type="passenger" depart="80.00">
        <route edges="660054260#0 660054260#1 92194639"/>
    </vehicle>
    <vehicle id="17" type="passenger" depart="85.00">
        <route edges="462900086#0 462900086#3 462900086#4 462900086#5 458798178#0 458798178#1 458798178#2"/>
    </vehicle>
    <vehicle id="18" type="passenger" depart="90.00">
        <route edges="660054260#0 660054260#1 458798178#0 458798178#1 458798178#2"/>
    </vehicle>
    <vehicle id="19" type="passenger" depart="95.00">
        <route edges="660054260#0 660054260#1 458798178#0 458798178#1 458798178#2"/>
    </vehicle>
    <vehicle id="20" type="passenger" depart="100.00">
        <route edges="660054260#0 660054260#1 55675974#0 92194630#1 -118416394#2 -118416394#1 -118416391"/>
    </vehicle>
    <vehicle id="21" type="passenger" depart="105.00">
        <route edges="118416392"/>
    </vehicle>
    <vehicle id="22" type="passenger" depart="110.00">
        <route edges="-118416392 118416392 -118416394#1 -118416391 118416391"/>
    </vehicle>
    <vehicle id="23" type="passenger" depart="115.00">
        <route edges="-118416392 118416392"/>
    </vehicle>
    <vehicle id="24" type="passenger" depart="120.00">
        <route edges="660054260#0 660054260#1 55675974#0 92194630#1 -118416394#2 118416394#2"/>
    </vehicle>
    <vehicle id="26" type="passenger" depart="130.00">
        <route edges="118416392 118416394#2 92194630#2 92194630#3 92194639"/>
    </vehicle>
    <vehicle id="27" type="passenger" depart="135.00">
        <route edges="660054260#0 660054260#1 458798178#0 458798178#1 458798178#2"/>
    </vehicle>
    <vehicle id="28" type="passenger" depart="140.00">
        <route edges="118416391 118416394#1 118416394#2 92194630#2 92194630#3 55675974#0"/>
    </vehicle>
    <vehicle id="29" type="passenger" depart="145.00">
        <route edges="-655019293#3 -655019293#2 -655019293#1 -655019293#0 462900086#4 462900086#5 328774394"/>
    </vehicle>
    <vehicle id="30" type="passenger" depart="150.00">
        <route edges="92194630#3 458798178#0 458798178#1 458798178#2"/>
    </vehicle>
    <vehicle id="31" type="passenger" depart="155.00">
        <route edges="660054260#0 660054260#1 458798178#0 458798178#1 458798178#2"/>
    </vehicle>
    <vehicle id="32" type="passenger" depart="160.00">
        <route edges="660054260#0 660054260#1 55675974#0 55675974#1"/>
    </vehicle>
    <vehicle id="33" type="passenger" depart="165.00">
        <route edges="118416392 -118416394#1 -118416391"/>
    </vehicle>
    <vehicle id="34" type="passenger" depart="170.00">
        <route edges="249195004#0 55675974#0 92194630#1 -118416394#2 -118416394#1 -118416391 118416391"/>
    </vehicle>
    <vehicle id="35" type="passenger" depart="175.00">
        <route edges="118416391 118416394#1 118416394#2 92194630#2 92194630#3 92194639"/>
    </vehicle>
    <vehicle id="36" type="passenger" depart="180.00">
        <route edges="660054260#0 660054260#1 55675974#0 92194630#1 -118416394#2 -118416392 118416392"/>
    </vehicle>
    <vehicle id="37" type="passenger" depart="185.00">
        <route edges="660054260#0 660054260#1 328774394"/>
    </vehicle>
    <vehicle id="38" type="passenger" depart="190.00">
        <route edges="92194630#0 92194630#1 92194630#2 92194630#3 328774394"/>
    </vehicle>
    <vehicle id="39" type="passenger" depart="195.00">
        <route edges="118416392 -118416394#1 -118416391 118416391"/>
    </vehicle>
    <vehicle id="40" type="passenger" depart="200.00">
        <route edges="660054260#0 660054260#1 55675974#0 92194630#1 -118416394#2 -118416394#1 -118416391 118416391"/>
    </vehicle>
    <vehicle id="41" type="passenger" depart="205.00">
        <route edges="660054260#0 660054260#1 55675974#0 92194630#1 92194630#2 92194630#3"/>
    </vehicle>
    <vehicle id="42" type="passenger" depart="210.00">
        <route edges="462900086#0 462900086#3 462900086#4 462900086#5 55675974#0 92194630#1 -118416394#2 -118416394#1 -118416391 118416391"/>
    </vehicle>
    <vehicle id="43" type="passenger" depart="215.00">
        <route edges="92194630#3 458798178#0 458798178#1 458798178#2"/>
    </vehicle>
    <vehicle id="44" type="passenger" depart="220.00">
        <route edges="-118416392 118416392 -118416394#1 -118416391"/>
    </vehicle>
    <vehicle id="45" type="passenger" depart="225.00">
        <route edges="-118416394#0 118416394#0 118416394#1 118416394#2 92194630#2 92194630#3 458798178#0 458798178#1 458798178#2"/>
    </vehicle>
    <vehicle id="46" type="passenger" depart="230.00">
        <route edges="660054260#0 660054260#1 328774394"/>
    </vehicle>
    <vehicle id="47" type="passenger" depart="235.00">
        <route edges="-118416392 118416392 118416394#2 92194630#2 92194630#3 328774394"/>
    </vehicle>
    <vehicle id="48" type="passenger" depart="240.00">
        <route edges="92194630#3 458798178#0 458798178#1 458798178#2"/>
    </vehicle>
    <vehicle id="49" type="passenger" depart="245.00">
        <route edges="92194630#0 55675976#1 -655019293#3 -655019293#2 -655019293#1 -655019293#0 655019293#0 655019293#1"/>
    </vehicle>
    <vehicle id="50" type="passenger" depart="250.00">
        <route edges="-118416391 118416391 118416394#1 118416394#2 92194630#2 92194630#3 55675974#0"/>
    </vehicle>
    <vehicle id="51" type="passenger" depart="255.00">
        <route edges="660054260#0 660054260#1 458798178#0 458798178#1 458798178#2"/>
    </vehicle>
    <vehicle id="52" type="passenger" depart="260.00">
        <route edges="118416392 118416394#2 92194630#2 92194630#3 458798178#0 458798178#1 458798178#2"/>
    </vehicle>
    <vehicle id="53" type="passenger" depart="265.00">
        <route edges="-118416394#0 118416394#0 118416394#1 118416394#2 92194630#2 92194630#3 328774394"/>
    </vehicle>
    <vehicle id="54" type="passenger" depart="270.00">
        <route edges="462900086#0 462900086#3 462900086#4 462900086#5 92194639"/>
    </vehicle>
    <vehicle id="55" type="passenger" depart="275.00">
        <route edges="660054260#0 660054260#1 55675974#0 92194630#1 -118416394#2 -118416394#1 -118416391 118416391"/>
    </vehicle>
    <vehicle id="56" type="passenger" depart="280.00">
        <route edges="55675976#2 -55675976#2"/>
    </vehicle>
    <vehicle id="57" type="passenger" depart="285.00">
        <route edges="92194630#0 55675976#1 -655019293#3 -655019293#2 655019293#2"/>
    </vehicle>
    <vehicle id="58" type="passenger" depart="290.00">
        <route edges="249195004#0 458798178#0 458798178#1 458798178#2"/>
    </vehicle>
    <vehicle id="59" type="passenger" depart="295.00">
        <route edges="660054260#0 660054260#1 55675974#0 92194630#1 -118416394#2"/>
    </vehicle>
    <vehicle id="60" type="passenger" depart="300.00">
        <route edges="660054260#0 660054260#1 458798178#0 458798178#1 458798178#2"/>
    </vehicle>
    <vehicle id="61" type="passenger" depart="305.00">
        <route edges="660054260#0 660054260#1 458798178#0 458798178#1 458798178#2"/>
    </vehicle>
    <vehicle id="62" type="passenger" depart="310.00">
        <route edges="-118416391 118416391 118416394#1 -118416392 118416392"/>
    </vehicle>
    <vehicle id="63" type="passenger" depart="315.00">
        <route edges="-118416391 118416391 118416394#1 118416394#2 92194630#2 92194630#3 92194639"/>
    </vehicle>
    <vehicle id="64" type="passenger" depart="320.00">
        <route edges="660054260#0 660054260#1 55675974#0 55675976#1"/>
    </vehicle>
    <vehicle id="65" type="passenger" depart="325.00">
        <route edges="249195004#0 55675974#0 92194630#1 -118416394#2 -118416394#1 -118416391"/>
    </vehicle>
    <vehicle id="66" type="passenger" depart="330.00">
        <route edges="660054260#0 660054260#1 92194639"/>
    </vehicle>
    <vehicle id="67" type="passenger" depart="335.00">
        <route edges="-118416392 118416392 118416394#2 92194630#2 92194630#3 458798178#0 458798178#1 458798178#2"/>
    </vehicle>
    <vehicle id="68" type="passenger" depart="340.00">
        <route edges="-118416392 118416392 118416394#2 92194630#2 92194630#3 55675974#0 55675974#1"/>
    </vehicle>
    <vehicle id="69" type="passenger" depart="345.00">
        <route edges="660054260#0 660054260#1 55675974#0 92194630#1 -118416394#2 -118416392"/>
    </vehicle>
    <vehicle id="70" type="passenger" depart="350.00">
        <route edges="55675974#0 92194630#1 92194630#2 92194630#3 458798178#0 458798178#1 458798178#2"/>
    </vehicle>
    <vehicle id="71" type="passenger" depart="355.00">
        <route edges="118416392 118416394#2 92194630#2 92194630#3 55675974#0 55675976#1 -655019293#3 -655019293#2 655019293#2"/>
    </vehicle>
    <vehicle id="72" type="passenger" depart="360.00">
        <route edges="462900086#0 462900086#3 462900086#4 462900086#5 55675974#0 92194630#1 -118416394#2 -118416394#1 -118416391 118416391"/>
    </vehicle>
    <vehicle id="73" type="passenger" depart="365.00">
        <route edges="660054260#0 660054260#1 55675974#0"/>
    </vehicle>
    <vehicle id="74" type="passenger" depart="370.00">
        <route edges="118416391 118416394#1 -118416392 118416392"/>
    </vehicle>
    <vehicle id="75" type="passenger" depart="375.00">
        <route edges="92194630#3 458798178#0 458798178#1 458798178#2"/>
    </vehicle>
    <vehicle id="76" type="passenger" depart="380.00">
        <route edges="462900086#0 462900086#3 462900086#4 462900086#5 458798178#0 458798178#1 458798178#2"/>
    </vehicle>
    <vehicle id="77" type="passenger" depart="385.00">
        <route edges="-118416394#2 -118416394#1 -118416391 118416391"/>
    </vehicle>
    <vehicle id="78" type="passenger" depart="390.00">
        <route edges="249195004#0 458798178#0 458798178#1 458798178#2"/>
    </vehicle>
    <vehicle id="79" type="passenger" depart="395.00">
        <route edges="118416392 -118416394#1 -118416391 118416391"/>
    </vehicle>
    <vehicle id="80" type="passenger" depart="400.00">
        <route edges="-118416392 118416392 118416394#2 92194630#2 92194630#3 458798178#0 458798178#1 458798178#2"/>
    </vehicle>
    <vehicle id="81" type="passenger" depart="405.00">
        <route edges="118416392 118416394#2 92194630#2 92194630#3"/>
    </vehicle>
    <vehicle id="82" type="passenger" depart="410.00">
        <route edges="660054260#0 660054260#1 55675974#0 92194630#1 -118416394#2 -118416392"/>
    </vehicle>
    <vehicle id="83" type="passenger" depart="415.00">
        <route edges="118416392 118416394#2 92194630#2 92194630#3 458798178#0 458798178#1 458798178#2"/>
    </vehicle>
    <vehicle id="84" type="passenger" depart="420.00">
        <route edges="118416392 -118416392"/>
    </vehicle>
    <vehicle id="85" type="passenger" depart="425.00">
        <route edges="92194630#0 92194630#1 92194630#2 92194630#3 458798178#0 458798178#1 458798178#2"/>
    </vehicle>
    <vehicle id="86" type="passenger" depart="430.00">
        <route edges="55675974#0 55675974#1"/>
    </vehicle>
    <vehicle id="87" type="passenger" depart="435.00">
        <route edges="660054260#0 660054260#1 55675974#0 55675976#1 -655019293#3 -655019293#2 -655019293#1"/>
    </vehicle>
    <vehicle id="88" type="passenger" depart="440.00">
        <route edges="-118416392 118416392 118416394#2 92194630#2 92194630#3 328774394"/>
    </vehicle>
    <vehicle id="89" type="passenger" depart="445.00">
        <route edges="462900086#0 462900086#3 462900086#4 462900086#5 328774394"/>
    </vehicle>
    <vehicle id="90" type="passenger" depart="450.00">
        <route edges="660054260#0 660054260#1 458798178#0 458798178#1 458798178#2"/>
    </vehicle>
    <vehicle id="91" type="passenger" depart="455.00">
        <route edges="92194630#2 92194630#3 55675974#0 92194630#1 -118416394#2 -118416392"/>
    </vehicle>
    <vehicle id="92" type="passenger" depart="460.00">
        <route edges="462900086#0 462900086#3 462900086#4 462900086#5 55675974#0 92194630#1 -118416394#2 -118416392 118416392"/>
    </vehicle>
    <vehicle id="93" type="passenger" depart="465.00">
        <route edges="660054260#0 660054260#1 55675974#0 92194630#1 -118416394#2 -118416394#1 -118416391 118416391"/>
    </vehicle>
    <vehicle id="94" type="passenger" depart="470.00">
        <route edges="118416391 118416394#1 118416394#2 92194630#2 92194630#3 328774394"/>
    </vehicle>
    <vehicle id="95" type="passenger" depart="475.00">
        <route edges="462900086#0 462900086#3 462900086#4 462900086#5 55675974#0 92194630#1 -118416394#2 -118416392 118416392"/>
    </vehicle>
    <vehicle id="96" type="passenger" depart="480.00">
        <route edges="118416392 118416394#2 92194630#2 92194630#3 92194639"/>
    </vehicle>
    <vehicle id="97" type="passenger" depart="485.00">
        <route edges="462900086#0 462900086#3 655019293#0 655019293#1"/>
    </vehicle>
    <vehicle id="98" type="passenger" depart="490.00">
        <route edges="660054260#0 660054260#1 55675974#0 92194630#1 -118416394#2 -118416394#1 -118416391"/>
    </vehicle>
    <vehicle id="99" type="passenger" depart="495.00">
        <route edges="92194630#3 55675974#0 55675976#1 55675976#2"/>
    </vehicle>
    <vehicle id="100" type="passenger" depart="500.00">
        <route edges="92194630#0 92194630#1 92194630#2 92194630#3 92194639"/>
    </vehicle>
    <vehicle id="101" type="passenger" depart="505.00">
        <route edges="660054260#0 660054260#1 55675974#0 55675976#1 55675976#2 -55675976#2"/>
    </vehicle>
    <vehicle id="102" type="passenger" depart="510.00">
        <route edges="55675974#0 92194630#1 -118416394#2 -118416394#1 -118416391 118416391"/>
    </vehicle>
    <vehicle id="103" type="passenger" depart="515.00">
        <route edges="462900086#0 462900086#3 462900086#4 462900086#5 55675974#0 92194630#1 -118416394#2 -118416394#1 -118416391"/>
    </vehicle>
    <vehicle id="104" type="passenger" depart="520.00">
        <route edges="462900086#0 462900086#3 462900086#4 462900086#5 92194639"/>
    </vehicle>
    <vehicle id="105" type="passenger" depart="525.00">
        <route edges="118416392 118416394#2 92194630#2 92194630#3 55675974#0 55675974#1"/>
    </vehicle>
    <vehicle id="106" type="passenger" depart="530.00">
        <route edges="462900086#0 462900086#3 462900086#4 462900086#5 328774394"/>
    </vehicle>
    <vehicle id="107" type="passenger" depart="535.00">
        <route edges="92194630#0 92194630#1 92194630#2 92194630#3 92194639"/>
    </vehicle>
    <vehicle id="108" type="passenger" depart="540.00">
        <route edges="660054260#0 660054260#1 55675974#0"/>
    </vehicle>
    <vehicle id="109" type="passenger" depart="545.00">
        <route edges="-655019293#2 655019293#2 655019293#3 -55675976#1 92194630#1 -118416394#2 -118416392 118416392"/>
    </vehicle>
    <vehicle id="110" type="passenger" depart="550.00">
        <route edges="92194630#0 92194630#1 92194630#2 92194630#3 458798178#0 458798178#1 458798178#2"/>
    </vehicle>
    <vehicle id="111" type="passenger" depart="555.00">
        <route edges="660054260#0 660054260#1 55675974#0 55675974#1"/>
    </vehicle>
    <vehicle id="112" type="passenger" depart="560.00">
        <route edges="-118416392 118416392 118416394#2 92194630#2 92194630#3 458798178#0 458798178#1 458798178#2"/>
    </vehicle>
    <vehicle id="113" type="passenger" depart="565.00">
        <route edges="55675976#2"/>
    </vehicle>
    <vehicle id="114" type="passenger" depart="570.00">
        <route edges="-655019293#2 -655019293#1 -655019293#0 462900086#4 462900086#5 92194639"/>
    </vehicle>
    <vehicle id="115" type="passenger" depart="575.00">
        <route edges="-118416392 118416392 118416394#2 92194630#2 92194630#3 55675974#0 55675976#1 -655019293#3 -655019293#2 -655019293#1"/>
    </vehicle>
    <vehicle id="116" type="passenger" depart="580.00">
        <route edges="660054260#0 660054260#1 458798178#0 458798178#1 458798178#2"/>
    </vehicle>
    <vehicle id="117" type="passenger" depart="585.00">
        <route edges="118416392 -118416392"/>
    </vehicle>
    <vehicle id="118" type="passenger" depart="590.00">
        <route edges="660054260#0 660054260#1 55675974#0 92194630#1 -118416394#2 -118416394#1 -118416391 118416391"/>
    </vehicle>
    <vehicle id="119" type="passenger" depart="595.00">
        <route edges="660054260#0 660054260#1 458798178#0 458798178#1 458798178#2"/>
    </vehicle>
    <vehicle id="120" type="passenger" depart="600.00">
        <route edges="462900086#0 462900086#3 462900086#4 462900086#5 458798178#0 458798178#1 458798178#2"/>
    </vehicle>
    <vehicle id="121" type="passenger" depart="605.00">
        <route edges="655019293#2 -655019293#2 -655019293#1 -655019293#0 462900086#4 462900086#5 92194639"/>
    </vehicle>
    <vehicle id="122" type="passenger" depart="610.00">
        <route edges="118416391 118416394#1 118416394#2 92194630#2 92194630#3 55675974#0"/>
    </vehicle>
    <vehicle id="123" type="passenger" depart="615.00">
        <route edges="118416392 118416394#2 92194630#2 92194630#3 328774394"/>
    </vehicle>
    <vehicle id="124" type="passenger" depart="620.00">
        <route edges="660054260#0 660054260#1 55675974#0 92194630#1 -118416394#2 -118416392 118416392"/>
    </vehicle>
    <vehicle id="125" type="passenger" depart="625.00">
        <route edges="249195004#0 55675974#0 55675974#1"/>
    </vehicle>
    <vehicle id="126" type="passenger" depart="630.00">
        <route edges="-118416392 118416392 118416394#2 92194630#2 92194630#3 328774394"/>
    </vehicle>
    <vehicle id="127" type="passenger" depart="635.00">
        <route edges="92194630#3 92194639"/>
    </vehicle>
    <vehicle id="128" type="passenger" depart="640.00">
        <route edges="-118416392 118416392 -118416394#1 -118416391 118416391"/>
    </vehicle>
    <vehicle id="129" type="passenger" depart="645.00">
        <route edges="118416392 118416394#2 92194630#2 92194630#3 92194639"/>
    </vehicle>
    <vehicle id="130" type="passenger" depart="650.00">
        <route edges="660054260#0 660054260#1 55675974#0 55675976#1 -655019293#3 655019293#3"/>
    </vehicle>
    <vehicle id="132" type="passenger" depart="660.00">
        <route edges="660054260#0 660054260#1 55675974#0 55675976#1 -655019293#3 -655019293#2 -655019293#1 -655019293#0 462900086#4"/>
    </vehicle>
    <vehicle id="133" type="passenger" depart="665.00">
        <route edges="660054260#0 660054260#1 92194639"/>
    </vehicle>
    <vehicle id="134" type="passenger" depart="670.00">
        <route edges="660054260#0 660054260#1 55675974#0 92194630#1 -118416394#2 -118416394#1 -118416391"/>
    </vehicle>
    <vehicle id="135" type="passenger" depart="675.00">
        <route edges="660054260#0 660054260#1 55675974#0 92194630#1 -118416394#2 -118416392 118416392"/>
    </vehicle>
    <vehicle id="136" type="passenger" depart="680.00">
        <route edges="660054260#0 660054260#1 92194639"/>
    </vehicle>
    <vehicle id="137" type="passenger" depart="685.00">
        <route edges="-55675976#2 -55675976#1 92194630#1 -118416394#2 -118416392"/>
    </vehicle>
    <vehicle id="138" type="passenger" depart="690.00">
        <route edges="-118416392 118416392 118416394#2 92194630#2 92194630#3 458798178#0 458798178#1 458798178#2"/>
    </vehicle>
    <vehicle id="139" type="passenger" depart="695.00">
        <route edges="118416392 118416394#2 92194630#2 92194630#3 458798178#0 458798178#1 458798178#2"/>
    </vehicle>
    <vehicle id="140" type="passenger" depart="700.00">
        <route edges="660054260#0 660054260#1 55675974#0 55675976#1 -655019293#3 -655019293#2"/>
    </vehicle>
    <vehicle id="141" type="passenger" depart="705.00">
        <route edges="660054260#0 660054260#1 55675974#0 92194630#1 -118416394#2 -118416394#1 -118416391 118416391"/>
    </vehicle>
    <vehicle id="142" type="passenger" depart="710.00">
        <route edges="55675976#1 -55675976#1 92194630#1 92194630#2 92194630#3"/>
    </vehicle>
    <vehicle id="143" type="passenger" depart="715.00">
        <route edges="660054260#0 660054260#1 55675974#0 92194630#1 -118416394#2 -118416392"/>
    </vehicle>
    <vehicle id="144" type="passenger" depart="720.00">
        <route edges="462900086#0 462900086#3 462900086#4 462900086#5 55675974#0 92194630#1 -118416394#2 -118416392 118416392"/>
    </vehicle>
    <vehicle id="145" type="passenger" depart="725.00">
        <route edges="-118416391 118416391 118416394#1 118416394#2 92194630#2 92194630#3 55675974#0 55675974#1"/>
    </vehicle>
    <vehicle id="146" type="passenger" depart="730.00">
        <route edges="660054260#0 660054260#1 55675974#0 92194630#1 -118416394#2 -118416394#1 -118416391 118416391"/>
    </vehicle>
    <vehicle id="147" type="passenger" depart="735.00">
        <route edges="660054260#0 660054260#1 458798178#0 458798178#1 458798178#2"/>
    </vehicle>
    <vehicle id="148" type="passenger" depart="740.00">
        <route edges="462900086#0 462900086#3 462900086#4 462900086#5 55675974#0 92194630#1 -118416394#2 -118416394#1 -118416391"/>
    </vehicle>
    <vehicle id="149" type="passenger" depart="745.00">
        <route edges="-118416392 118416392 118416394#2 92194630#2 92194630#3 55675974#0 92194630#1"/>
    </vehicle>
    <vehicle id="150" type="passenger" depart="750.00">
        <route edges="660054260#0 660054260#1 458798178#0 458798178#1 458798178#2"/>
    </vehicle>
    <vehicle id="151" type="passenger" depart="755.00">
        <route edges="660054260#0 660054260#1 458798178#0 458798178#1 458798178#2"/>
    </vehicle>
    <vehicle id="152" type="passenger" depart="760.00">
        <route edges="-655019293#1 -655019293#0 462900086#4 462900086#5 55675974#0 92194630#1 -118416394#2 -118416392"/>
    </vehicle>
    <vehicle id="153" type="passenger" depart="765.00">
        <route edges="249195004#0 55675974#0 92194630#1 92194630#2 92194630#3"/>
    </vehicle>
    <vehicle id="154" type="passenger" depart="770.00">
        <route edges="660054260#0 660054260#1 55675974#0 55675976#1 -655019293#3 -655019293#2 -655019293#1 -655019293#0 655019293#0 655019293#1"/>
    </vehicle>
    <vehicle id="155" type="passenger" depart="775.00">
        <route edges="660054260#0 660054260#1 55675974#0 92194630#1 -118416394#2 -118416394#1 -118416391 118416391"/>
    </vehicle>
    <vehicle id="156" type="passenger" depart="780.00">
        <route edges="118416392 -118416392"/>
    </vehicle>
    <vehicle id="157" type="passenger" depart="785.00">
        <route edges="660054260#0 660054260#1 55675974#0 92194630#1"/>
    </vehicle>
    <vehicle id="158" type="passenger" depart="790.00">
        <route edges="462900086#0 462900086#3 462900086#4 462900086#5 458798178#0 458798178#1 458798178#2"/>
    </vehicle>
    <vehicle id="159" type="passenger" depart="795.00">
        <route edges="-655019293#2 -655019293#1 -655019293#0 462900086#4 462900086#5 92194639"/>
    </vehicle>
    <vehicle id="160" type="passenger" depart="800.00">
        <route edges="660054260#0 660054260#1 92194639"/>
    </vehicle>
    <vehicle id="161" type="passenger" depart="805.00">
        <route edges="660054260#0 660054260#1 55675974#0 55675976#1 -655019293#3 655019293#3"/>
    </vehicle>
    <vehicle id="162" type="passenger" depart="810.00">
        <route edges="-118416391 118416391 118416394#1 118416394#2 92194630#2 92194630#3 55675974#0 55675974#1"/>
    </vehicle>
    <vehicle id="163" type="passenger" depart="815.00">
        <route edges="249195004#0 92194639"/>
    </vehicle>
    <vehicle id="164" type="passenger" depart="820.00">
        <route edges="660054260#0 660054260#1 55675974#0 55675976#1 -655019293#3 -655019293#2 -655019293#1 -655019293#0 655019293#0 655019293#1"/>
    </vehicle>
    <vehicle id="165" type="passenger" depart="825.00">
        <route edges="660054260#0 660054260#1 55675974#0 92194630#1 -118416394#2 -118416394#1 -118416391 118416391"/>
    </vehicle>
    <vehicle id="166" type="passenger" depart="830.00">
        <route edges="660054260#0 660054260#1 55675974#0 92194630#1 -118416394#2 -118416392"/>
    </vehicle>
    <vehicle id="167" type="passenger" depart="835.00">
        <route edges="660054260#0 660054260#1 55675974#0 55675976#1 -655019293#3 -655019293#2 -655019293#1 -655019293#0 655019293#0 655019293#1"/>
    </vehicle>
    <vehicle id="168" type="passenger" depart="840.00">
        <route edges="118416392 118416394#2 92194630#2 92194630#3 55675974#0 55675974#1"/>
    </vehicle>
    <vehicle id="169" type="passenger" depart="845.00">
        <route edges="462900086#3 462900086#4 462900086#5 55675974#0 92194630#1 -118416394#2 -118416392 118416392"/>
    </vehicle>
    <vehicle id="170" type="passenger" depart="850.00">
        <route edges="660054260#0 660054260#1 55675974#0 92194630#1 -118416394#2 -118416394#1 -118416391 118416391"/>
    </vehicle>
    <vehicle id="171" type="passenger" depart="855.00">
        <route edges="-118416391 118416391 118416394#1 118416394#2 92194630#2 92194630#3 55675974#0 55675976#1 -655019293#3 -655019293#2"/>
    </vehicle>
    <vehicle id="172" type="passenger" depart="860.00">
        <route edges="249195004#0 55675974#0 55675976#1 -655019293#3 -655019293#2 -655019293#1 -655019293#0 655019293#0 655019293#1"/>
    </vehicle>
    <vehicle id="173" type="passenger" depart="865.00">
        <route edges="92194630#0 92194630#1 -118416394#2 -118416392 118416392"/>
    </vehicle>
    <vehicle id="174" type="passenger" depart="870.00">
        <route edges="660054260#0 660054260#1 328774394"/>
    </vehicle>
    <vehicle id="175" type="passenger" depart="875.00">
        <route edges="92194630#0 92194630#1 92194630#2 92194630#3 458798178#0 458798178#1 458798178#2"/>
    </vehicle>
    <vehicle id="176" type="passenger" depart="880.00">
        <route edges="92194630#0 92194630#1 -118416394#2 -118416392"/>
    </vehicle>
    <vehicle id="177" type="passenger" depart="885.00">
        <route edges="92194630#0 55675976#1 55675976#2 -55675976#2"/>
    </vehicle>
    <vehicle id="178" type="passenger" depart="890.00">
        <route edges="92194630#0 92194630#1 -118416394#2 -118416394#1 -118416391 118416391"/>
    </vehicle>
    <vehicle id="179" type="passenger" depart="895.00">
        <route edges="-118416392 118416392 118416394#2 92194630#2 92194630#3 328774394"/>
    </vehicle>
    <vehicle id="180" type="passenger" depart="900.00">
        <route edges="660054260#0 660054260#1 55675974#0 92194630#1 -118416394#2 -118416392 118416392"/>
    </vehicle>
    <vehicle id="181" type="passenger" depart="905.00">
        <route edges="660054260#0 660054260#1 458798178#0 458798178#1 458798178#2"/>
    </vehicle>