<routes>
            <vType accel="1.0" decel="4.5" id="standard_car" length="5.0" minGap="2.5" maxSpeed="25" sigma="0.5" />

            <route id="W_N" edges="W2T T2N"/>
            <route id="W_E" edges="W2T T2E"/>
            <route id="W_S" edges="W2T T2S"/>
            <route id="N_W" edges="N2T T2W"/>
            <route id="N_E" edges="N2T T2E"/>
            <route id="N_S" edges="N2T T2S"/>
            <route id="E_W" edges="E2T T2W"/>
            <route id="E_N" edges="E2T T2N"/>
            <route id="E_S" edges="E2T T2S"/>
            <route id="S_W" edges="S2T T2W"/>
            <route id="S_N" edges="S2T T2N"/>
            <route id="S_E" edges="S2T T2E"/>
    <vehicle id="W_E_0" type="standard_car" route="W_E" depart="44.0" departLane="random" departSpeed="10" />
    <vehicle id="E_S_1" type="standard_car" route="E_S" depart="47.0" departLane="random" departSpeed="10" />
    <vehicle id="E_W_2" type="standard_car" route="E_W" depart="64.0" departLane="random" departSpeed="10" />
    <vehicle id="N_E_3" type="standard_car" route="N_E" depart="73.0" departLane="random" departSpeed="10" />
    <vehicle id="E_W_4" type="standard_car" route="E_W" depart="99.0" departLane="random" departSpeed="10" />
    <vehicle id="W_E_5" type="standard_car" route="W_E" depart="123.0" departLane="random" departSpeed="10" />
    <vehicle id="N_E_6" type="standard_car" route="N_E" depart="133.0" departLane="random" departSpeed="10" />
    <vehicle id="W_E_7" type="standard_car" route="W_E" depart="158.0" departLane="random" departSpeed="10" />
    <vehicle id="N_S_8" type="standard_car" route="N_S" depart="159.0" departLane="random" departSpeed="10" />
    <vehicle id="W_E_9" type="standard_car" route="W_E" depart="168.0" departLane="random" departSpeed="10" />
    <vehicle id="S_N_10" type="standard_car" route="S_N" depart="170.0" departLane="random" departSpeed="10" />
    <vehicle id="S_N_11" type="standard_car" route="S_N" depart="171.0" departLane="random" departSpeed="10" />
    <vehicle id="N_E_12" type="standard_car" route="N_E" depart="173.0" departLane="random" departSpeed="10" />
    <vehicle id="S_E_13" type="standard_car" route="S_E" depart="217.0" departLane="random" departSpeed="10" />
    <vehicle id="N_S_14" type="standard_car" route="N_S" depart="218.0" departLane="random" departSpeed="10" />
    <vehicle id="W_E_15" type="standard_car" route="W_E" depart="237.0" departLane="random" departSpeed="10" />
    <vehicle id="N_S_16" type="standard_car" route="N_S" depart="237.0" departLane="random" departSpeed="10" />
    <vehicle id="W_S_17" type="standard_car" route="W_S" depart="238.0" departLane="random" departSpeed="10" />
    <vehicle id="S_N_18" type="standard_car" route="S_N" depart="249.0" departLane="random" departSpeed="10" />
    <vehicle id="W_E_19" type="standard_car" route="W_E" depart="249.0" departLane="random" departSpeed="10" />
    <vehicle id="S_N_20" type="standard_car" route="S_N" depart="253.0" departLane="random" departSpeed="10" />
    <vehicle id="E_N_21" type="standard_car" route="E_N" depart="254.0" departLane="random" departSpeed="10" />
    <vehicle id="E_W_22" type="standard_car" route="E_W" depart="257.0" departLane="random" departSpeed="10" />
    <vehicle id="N_S_23" type="standard_car" route="N_S" depart="258.0" departLane="random" departSpeed="10" />
    <vehicle id="S_E_24" type="standard_car" route="S_E" depart="261.0" departLane="random" departSpeed="10" />
    <vehicle id="W_N_25" type="standard_car" route="W_N" depart="266.0" departLane="random" departSpeed="10" />
    <vehicle id="E_S_26" type="standard_car" route="E_S" depart="278.0" departLane="random" departSpeed="10" />
    <vehicle id="E_W_27" type="standard_car" route="E_W" depart="282.0" departLane="random" departSpeed="10" />
    <vehicle id="N_S_28" type="standard_car" route="N_S" depart="307.0" departLane="random" departSpeed="10" />
    <vehicle id="S_N_29" type="standard_car" route="S_N" depart="313.0" departLane="random" departSpeed="10" />
    <vehicle id="N_W_30" type="standard_car" route="N_W" depart="320.0" departLane="random" departSpeed="10" />
    <vehicle id="N_S_31" type="standard_car" route="N_S" depart="328.0" departLane="random" departSpeed="10" />
    <vehicle id="E_W_32" type="standard_car" route="E_W" depart="337.0" departLane="random" departSpeed="10" />
    <vehicle id="E_W_33" type="standard_car" route="E_W" depart="340.0" departLane="random" departSpeed="10" />
    <vehicle id="S_E_34" type="standard_car" route="S_E" depart="342.0" departLane="random" departSpeed="10" />
    <vehicle id="W_N_35" type="standard_car" route="W_N" depart="353.0" departLane="random" departSpeed="10" />
    <vehicle id="E_N_36" type="standard_car" route="E_N" depart="354.0" departLane="random" departSpeed="10" />
    <vehicle id="W_E_37" type="standard_car" route="W_E" depart="357.0" departLane="random" departSpeed="10" />
    <vehicle id="W_N_38" type="standard_car" route="W_N" depart="359.0" departLane="random" departSpeed="10" />
    <vehicle id="N_S_39" type="standard_car" route="N_S" depart="360.0" departLane="random" departSpeed="10" />
    <vehicle id="W_S_40" type="standard_car" route="W_S" depart="361.0" departLane="random" departSpeed="10" />
    <vehicle id="E_N_41" type="standard_car" route="E_N" depart="362.0" departLane="random" departSpeed="10" />
    <vehicle id="N_S_42" type="standard_car" route="N_S" depart="371.0" departLane="random" departSpeed="10" />
    <vehicle id="E_W_43" type="standard_car" route="E_W" depart="372.0" departLane="random" departSpeed="10" />
    <vehicle id="S_E_44" type="standard_car" route="S_E" depart="374.0" departLane="random" departSpeed="10" />
    <vehicle id="N_S_45" type="standard_car" route="N_S" depart="376.0" departLane="random" departSpeed="10" />
    <vehicle id="E_S_46" type="standard_car" route="E_S" depart="385.0" departLane="random" departSpeed="10" />
    <vehicle id="E_W_47" type="standard_car" route="E_W" depart="386.0" departLane="random" departSpeed="10" />
    <vehicle id="S_N_48" type="standard_car" route="S_N" depart="386.0" departLane="random" departSpeed="10" />
    <vehicle id="W_E_49" type="standard_car" route="W_E" depart="394.0" departLane="random" departSpeed="10" />
    <vehicle id="S_E_50" type="standard_car" route="S_E" depart="403.0" departLane="random" departSpeed="10" />
    <vehicle id="E_W_51" type="standard_car" route="E_W" depart="417.0" departLane="random" departSpeed="10" />
    <vehicle id="E_W_52" type="standard_car" route="E_W" depart="422.0" departLane="random" departSpeed="10" />
    <vehicle id="E_W_53" type="standard_car" route="E_W" depart="433.0" departLane="random" departSpeed="10" />
    <vehicle id="N_S_54" type="standard_car" route="N_S" depart="435.0" departLane="random" departSpeed="10" />
    <vehicle id="W_E_55" type="standard_car" route="W_E" depart="442.0" departLane="random" departSpeed="10" />
    <vehicle id="N_W_56" type="standard_car" route="N_W" depart="447.0" departLane="random" departSpeed="10" />
    <vehicle id="E_W_57" type="standard_car" route="E_W" depart="447.0" departLane="random" departSpeed="10" />
    <vehicle id="E_W_58" type="standard_car" route="E_W" depart="447.0" departLane="random" departSpeed="10" />
    <vehicle id="E_W_59" type="standard_car" route="E_W" depart="448.0" departLane="random" departSpeed="10" />
    <vehicle id="E_W_60" type="standard_car" route="E_W" depart="448.0" departLane="random" departSpeed="10" />
    <vehicle id="W_E_61" type="standard_car" route="W_E" depart="450.0" departLane="random" departSpeed="10" />
    <vehicle id="E_W_62" type="standard_car" route="E_W" depart="452.0" departLane="random" departSpeed="10" />
    <vehicle id="S_N_63" type="standard_car" route="S_N" depart="453.0" departLane="random" departSpeed="10" />
    <vehicle id="S_N_64" type="standard_car" route="S_N" depart="461.0" departLane="random" departSpeed="10" />
    <vehicle id="W_E_65" type="standard_car" route="W_E" depart="463.0" departLane="random" departSpeed="10" />
    <vehicle id="E_N_66" type="standard_car" route="E_N" depart="465.0" departLane="random" departSpeed="10" />
    <vehicle id="E_W_67" type="standard_car" route="E_W" depart="471.0" departLane="random" departSpeed="10" />
    <vehicle id="W_E_68" type="standard_car" route="W_E" depart="471.0" departLane="random" departSpeed="10" />
    <vehicle id="S_W_69" type="standard_car" route="S_W" depart="472.0" departLane="random" departSpeed="10" />
    <vehicle id="N_S_70" type="standard_car" route="N_S" depart="473.0" departLane="random" departSpeed="10" />
    <vehicle id="S_N_71" type="standard_car" route="S_N" depart="476.0" departLane="random" departSpeed="10" />
    <vehicle id="S_N_72" type="standard_car" route="S_N" depart="484.0" departLane="random" departSpeed="10" />
    <vehicle id="S_N_73" type="standard_car" route="S_N" depart="486.0" departLane="random" departSpeed="10" />
    <vehicle id="N_E_74" type="standard_car" route="N_E" depart="491.0" departLane="random" departSpeed="10" />
    <vehicle id="N_S_75" type="standard_car" route="N_S" depart="493.0" departLane="random" departSpeed="10" />
    <vehicle id="W_E_76" type="standard_car" route="W_E" depart="496.0" departLane="random" departSpeed="10" />
    <vehicle id="S_N_77" type="standard_car" route="S_N" depart="496.0" departLane="random" departSpeed="10" />
    <vehicle id="E_W_78" type="standard_car" route="E_W" depart="511.0" departLane="random" departSpeed="10" />
    <vehicle id="S_W_79" type="standard_car" route="S_W" depart="512.0" departLane="random" departSpeed="10" />
    <vehicle id="W_E_80" type="standard_car" route="W_E" depart="515.0" departLane="random" departSpeed="10" />
    <vehicle id="W_E_81" type="standard_car" route="W_E" depart="520.0" departLane="random" departSpeed="10" />
    <vehicle id="E_W_82" type="standard_car" route="E_W" depart="520.0" departLane="random" departSpeed="10" />
    <vehicle id="E_S_83" type="standard_car" route="E_S" depart="524.0" departLane="random" departSpeed="10" />
    <vehicle id="S_N_84" type="standard_car" route="S_N" depart="528.0" departLane="random" departSpeed="10" />
    <vehicle id="N_S_85" type="standard_car" route="N_S" depart="531.0" departLane="random" departSpeed="10" />
    <vehicle id="W_E_86" type="standard_car" route="W_E" depart="531.0" departLane="random" departSpeed="10" />
    <vehicle id="N_W_87" type="standard_car" route="N_W" depart="534.0" departLane="random" departSpeed="10" />
    <vehicle id="N_S_88" type="standard_car" route="N_S" depart="534.0" departLane="random" departSpeed="10" />
    <vehicle id="N_S_89" type="standard_car" route="N_S" depart="545.0" departLane="random" departSpeed="10" />
    <vehicle id="N_E_90" type="standard_car" route="N_E" depart="550.0" departLane="random" departSpeed="10" />
    <vehicle id="W_E_91" type="standard_car" route="W_E" depart="552.0" departLane="random" departSpeed="10" />
    <vehicle id="S_E_92" type="standard_car" route="S_E" depart="553.0" departLane="random" departSpeed="10" />
    <vehicle id="N_S_93" type="standard_car" route="N_S" depart="554.0" departLane="random" departSpeed="10" />
    <vehicle id="N_W_94" type="standard_car" route="N_W" depart="557.0" departLane="random" departSpeed="10" />
    <vehicle id="N_S_95" type="standard_car" route="N_S" depart="559.0" departLane="random" departSpeed="10" />
    <vehicle id="S_N_96" type="standard_car" route="S_N" depart="569.0" departLane="random" departSpeed="10" />
    <vehicle id="W_E_97" type="standard_car" route="W_E" depart="571.0" departLane="random" departSpeed="10" />
    <vehicle id="S_W_98" type="standard_car" route="S_W" depart="571.0" departLane="random" departSpeed="10" />
    <vehicle id="S_N_99" type="standard_car" route="S_N" depart="572.0" departLane="random" departSpeed="10" />
    <vehicle id="S_N_100" type="standard_car" route="S_N" depart="578.0" departLane="random" departSpeed="10" />
    <vehicle id="N_S_101" type="standard_car" route="N_S" depart="585.0" departLane="random" departSpeed="10" />
    <vehicle id="E_W_102" type="standard_car" route="E_W" depart="590.0" departLane="random" departSpeed="10" />
    <vehicle id="S_N_103" type="standard_car" route="S_N" depart="591.0" departLane="random" departSpeed="10" />
    <vehicle id="W_E_104" type="standard_car" route="W_E" depart="591.0" departLane="random" departSpeed="10" />
    <vehicle id="N_S_105" type="standard_car" route="N_S" depart="596.0" departLane="random" departSpeed="10" />
    <vehicle id="N_S_106" type="standard_car" route="N_S" depart="598.0" departLane="random" departSpeed="10" />
    <vehicle id="E_N_107" type="standard_car" route="E_N" depart="600.0" departLane="random" departSpeed="10" />
    <vehicle id="E_W_108" type="standard_car" route="E_W" depart="601.0" departLane="random" departSpeed="10" />
    <vehicle id="E_W_109" type="standard_car" route="E_W" depart="605.0" departLane="random" departSpeed="10" />
    <vehicle id="S_N_110" type="standard_car" route="S_N" depart="615.0" departLane="random" departSpeed="10" />
    <vehicle id="E_W_111" type="standard_car" route="E_W" depart="616.0" departLane="random" departSpeed="10" />
    <vehicle id="E_W_112" type="standard_car" route="E_W" depart="617.0" departLane="random" departSpeed="10" />
    <vehicle id="W_E_113" type="standard_car" route="W_E" depart="623.0" departLane="random" departSpeed="10" />
    <vehicle id="S_E_114" type="standard_car" route="S_E" depart="628.0" departLane="random" departSpeed="10" />
    <vehicle id="E_W_115" type="standard_car" route="E_W" depart="634.0" departLane="random" departSpeed="10" />
    <vehicle id="S_E_116" type="standard_car" route="S_E" depart="639.0" departLane="random" departSpeed="10" />
    <vehicle id="E_W_117" type="standard_car" route="E_W" depart="642.0" departLane="random" departSpeed="10" />
    <vehicle id="N_W_118" type="standard_car" route="N_W" depart="649.0" departLane="random" departSpeed="10" />
    <vehicle id="S_N_119" type="standard_car" route="S_N" depart="651.0" departLane="random" departSpeed="10" />
    <vehicle id="S_E_120" type="standard_car" route="S_E" depart="651.0" departLane="random" departSpeed="10" />
    <vehicle id="S_N_121" type="standard_car" route="S_N" depart="652.0" departLane="random" departSpeed="10" />
    <vehicle id="E_W_122" type="standard_car" route="E_W" depart="653.0" departLane="random" departSpeed="10" />
    <vehicle id="S_N_123" type="standard_car" route="S_N" depart="653.0" departLane="random" departSpeed="10" />
    <vehicle id="N_S_124" type="standard_car" route="N_S" depart="656.0" departLane="random" departSpeed="10" />
    <vehicle id="S_N_125" type="standard_car" route="S_N" depart="658.0" departLane="random" departSpeed="10" />
    <vehicle id="N_S_126" type="standard_car" route="N_S" depart="661.0" departLane="random" departSpeed="10" />
    <vehicle id="S_E_127" type="standard_car" route="S_E" depart="665.0" departLane="random" departSpeed="10" />
    <vehicle id="N_S_128" type="standard_car" route="N_S" depart="668.0" departLane="random" departSpeed="10" />
    <vehicle id="E_W_129" type="standard_car" route="E_W" depart="668.0" departLane="random" departSpeed="10" />
    <vehicle id="S_N_130" type="standard_car" route="S_N" depart="673.0" departLane="random" departSpeed="10" />
    <vehicle id="W_E_131" type="standard_car" route="W_E" depart="677.0" departLane="random" departSpeed="10" />
    <vehicle id="E_N_132" type="standard_car" route="E_N" depart="678.0" departLane="random" departSpeed="10" />
    <vehicle id="E_W_133" type="standard_car" route="E_W" depart="683.0" departLane="random" departSpeed="10" />
    <vehicle id="E_W_134" type="standard_car" route="E_W" depart="683.0" departLane="random" departSpeed="10" />
    <vehicle id="E_W_135" type="standard_car" route="E_W" depart="691.0" departLane="random" departSpeed="10" />
    <vehicle id="N_S_136" type="standard_car" route="N_S" depart="693.0" departLane="random" departSpeed="10" />
    <vehicle id="E_W_137" type="standard_car" route="E_W" depart="696.0" departLane="random" departSpeed="10" />
    <vehicle id="W_E_138" type="standard_car" route="W_E" depart="697.0" departLane="random" departSpeed="10" />
    <vehicle id="E_W_139" type="standard_car" route="E_W" depart="699.0" departLane="random" departSpeed="10" />
    <vehicle id="E_W_140" type="standard_car" route="E_W" depart="700.0" departLane="random" departSpeed="10" />
    <vehicle id="N_S_141" type="standard_car" route="N_S" depart="708.0" departLane="random" departSpeed="10" />
    <vehicle id="W_E_142" type="standard_car" route="W_E" depart="710.0" departLane="random" departSpeed="10" />
    <vehicle id="E_W_143" type="standard_car" route="E_W" depart="713.0" departLane="random" departSpeed="10" />
    <vehicle id="E_S_144" type="standard_car" route="E_S" depart="716.0" departLane="random" departSpeed="10" />
    <vehicle id="N_S_145" type="standard_car" route="N_S" depart="717.0" departLane="random" departSpeed="10" />
    <vehicle id="S_N_146" type="standard_car" route="S_N" depart="727.0" departLane="random" departSpeed="10" />
    <vehicle id="E_W_147" type="standard_car" route="E_W" depart="729.0" departLane="random" departSpeed="10" />
    <vehicle id="E_W_148" type="standard_car" route="E_W" depart="730.0" departLane="random" departSpeed="10" />
    <vehicle id="N_E_149" type="standard_car" route="N_E" depart="731.0" departLane="random" departSpeed="10" />
    <vehicle id="E_S_150" type="standard_car" route="E_S" depart="736.0" departLane="random" departSpeed="10" />
    <vehicle id="S_N_151" type="standard_car" route="S_N" depart="738.0" departLane="random" departSpeed="10" />
    <vehicle id="S_E_152" type="standard_car" route="S_E" depart="741.0" departLane="random" departSpeed="10" />
    <vehicle id="S_N_153" type="standard_car" route="S_N" depart="745.0" departLane="random" departSpeed="10" />
    <vehicle id="N_S_154" type="standard_car" route="N_S" depart="746.0" departLane="random" departSpeed="10" />
    <vehicle id="W_E_155" type="standard_car" route="W_E" depart="749.0" departLane="random" departSpeed="10" />
    <vehicle id="S_N_156" type="standard_car" route="S_N" depart="750.0" departLane="random" departSpeed="10" />
    <vehicle id="S_E_157" type="standard_car" route="S_E" depart="751.0" departLane="random" departSpeed="10" />
    <vehicle id="S_W_158" type="standard_car" route="S_W" depart="753.0" departLane="random" departSpeed="10" />
    <vehicle id="E_N_159" type="standard_car" route="E_N" depart="756.0" departLane="random" departSpeed="10" />
    <vehicle id="S_N_160" type="standard_car" route="S_N" depart="757.0" departLane="random" departSpeed="10" />
    <vehicle id="E_W_161" type="standard_car" route="E_W" depart="758.0" departLane="random" departSpeed="10" />
    <vehicle id="N_W_162" type="standard_car" route="N_W" depart="758.0" departLane="random" departSpeed="10" />
    <vehicle id="S_W_163" type="standard_car" route="S_W" depart="760.0" departLane="random" departSpeed="10" />
    <vehicle id="W_E_164" type="standard_car" route="W_E" depart="760.0" departLane="random" departSpeed="10" />
    <vehicle id="E_W_165" type="standard_car" route="E_W" depart="768.0" departLane="random" departSpeed="10" />
    <vehicle id="N_S_166" type="standard_car" route="N_S" depart="768.0" departLane="random" departSpeed="10" />
    <vehicle id="E_W_167" type="standard_car" route="E_W" depart="772.0" departLane="random" departSpeed="10" />
    <vehicle id="W_E_168" type="standard_car" route="W_E" depart="779.0" departLane="random" departSpeed="10" />
    <vehicle id="S_N_169" type="standard_car" route="S_N" depart="783.0" departLane="random" departSpeed="10" />
    <vehicle id="W_E_170" type="standard_car" route="W_E" depart="785.0" departLane="random" departSpeed="10" />
    <vehicle id="S_N_171" type="standard_car" route="S_N" depart="786.0" departLane="random" departSpeed="10" />
    <vehicle id="N_S_172" type="standard_car" route="N_S" depart="787.0" departLane="random" departSpeed="10" />
    <vehicle id="N_S_173" type="standard_car" route="N_S" depart="790.0" departLane="random" departSpeed="10" />
    <vehicle id="E_W_174" type="standard_car" route="E_W" depart="792.0" departLane="random" departSpeed="10" />
    <vehicle id="E_W_175" type="standard_car" route="E_W" depart="793.0" departLane="random" departSpeed="10" />
    <vehicle id="E_N_176" type="standard_car" route="E_N" depart="795.0" departLane="random" departSpeed="10" />
    <vehicle id="S_W_177" type="standard_car" route="S_W" depart="797.0" departLane="random" departSpeed="10" />
    <vehicle id="E_N_178" type="standard_car" route="E_N" depart="812.0" departLane="random" departSpeed="10" />
    <vehicle id="W_E_179" type="standard_car" route="W_E" depart="817.0" departLane="random" departSpeed="10" />
    <vehicle id="W_E_180" type="standard_car" route="W_E" depart="819.0" departLane="random" departSpeed="10" />
    <vehicle id="E_W_181" type="standard_car" route="E_W" depart="820.0" departLane="random" departSpeed="10" />
    <vehicle id="N_S_182" type="standard_car" route="N_S" depart="821.0" departLane="random" departSpeed="10" />
    <vehicle id="N_S_183" type="standard_car" route="N_S" depart="824.0" departLane="random" departSpeed="10" />
    <vehicle id="N_S_184" type="standard_car" route="N_S" depart="829.0" departLane="random" departSpeed="10" />
    <vehicle id="S_N_185" type="standard_car" route="S_N" depart="829.0" departLane="random" departSpeed="10" />
    <vehicle id="N_E_186" type="standard_car" route="N_E" depart="831.0" departLane="random" departSpeed="10" />
    <vehicle id="E_W_187" type="standard_car" route="E_W" depart="833.0" departLane="random" departSpeed="10" />
    <vehicle id="S_N_188" type="standard_car" route="S_N" depart="834.0" departLane="random" departSpeed="10" />
    <vehicle id="E_W_189" type="standard_car" route="E_W" depart="847.0" departLane="random" departSpeed="10" />
    <vehicle id="W_E_190" type="standard_car" route="W_E" depart="849.0" departLane="random" departSpeed="10" />
    <vehicle id="E_W_191" type="standard_car" route="E_W" depart="849.0" departLane="random" departSpeed="10" />
    <vehicle id="N_S_192" type="standard_car" route="N_S" depart="850.0" departLane="random" departSpeed="10" />
    <vehicle id="E_S_193" type="standard_car" route="E_S" depart="854.0" departLane="random" departSpeed="10" />
    <vehicle id="W_E_194" type="standard_car" route="W_E" depart="860.0" departLane="random" departSpeed="10" />
    <vehicle id="E_N_195" type="standard_car" route="E_N" depart="861.0" departLane="random" departSpeed="10" />
    <vehicle id="E_W_196" type="standard_car" route="E_W" depart="865.0" departLane="random" departSpeed="10" />
    <vehicle id="W_E_197" type="standard_car" route="W_E" depart="866.0" departLane="random" departSpeed="10" />
    <vehicle id="W_S_198" type="standard_car" route="W_S" depart="867.0" departLane="random" departSpeed="10" />
    <vehicle id="W_E_199" type="standard_car" route="W_E" depart="870.0" departLane="random" departSpeed="10" />
    <vehicle id="W_E_200" type="standard_car" route="W_E" depart="872.0" departLane="random" departSpeed="10" />
    <vehicle id="S_N_201" type="standard_car" route="S_N" depart="878.0" departLane="random" departSpeed="10" />
    <vehicle id="N_S_202" type="standard_car" route="N_S" depart="879.0" departLane="random" departSpeed="10" />
    <vehicle id="N_S_203" type="standard_car" route="N_S" depart="880.0" departLane="random" departSpeed="10" />
    <vehicle id="E_W_204" type="standard_car" route="E_W" depart="880.0" departLane="random" departSpeed="10" />
    <vehicle id="N_S_205" type="standard_car" route="N_S" depart="889.0" departLane="random" departSpeed="10" />
    <vehicle id="N_S_206" type="standard_car" route="N_S" depart="891.0" departLane="random" departSpeed="10" />
    <vehicle id="S_E_207" type="standard_car" route="S_E" depart="891.0" departLane="random" departSpeed="10" />
    <vehicle id="W_S_208" type="standard_car" route="W_S" depart="901.0" departLane="random" departSpeed="10" />
    <vehicle id="N_S_209" type="standard_car" route="N_S" depart="902.0" departLane="random" departSpeed="10" />
    <vehicle id="S_N_210" type="standard_car" route="S_N" depart="903.0" departLane="random" departSpeed="10" />
    <vehicle id="S_W_211" type="standard_car" route="S_W" depart="903.0" departLane="random" departSpeed="10" />
    <vehicle id="S_N_212" type="standard_car" route="S_N" depart="904.0" departLane="random" departSpeed="10" />
    <vehicle id="N_S_213" type="standard_car" route="N_S" depart="904.0" departLane="random" departSpeed="10" />
    <vehicle id="W_E_214" type="standard_car" route="W_E" depart="905.0" departLane="random" departSpeed="10" />
    <vehicle id="E_W_215" type="standard_car" route="E_W" depart="906.0" departLane="random" departSpeed="10" />
    <vehicle id="W_S_216" type="standard_car" route="W_S" depart="909.0" departLane="random" departSpeed="10" />
    <vehicle id="S_N_217" type="standard_car" route="S_N" depart="911.0" departLane="random" departSpeed="10" />
    <vehicle id="S_N_218" type="standard_car" route="S_N" depart="913.0" departLane="random" departSpeed="10" />
    <vehicle id="W_E_219" type="standard_car" route="W_E" depart="916.0" departLane="random" departSpeed="10" />
    <vehicle id="N_S_220" type="standard_car" route="N_S" depart="917.0" departLane="random" departSpeed="10" />
    <vehicle id="N_S_221" type="standard_car" route="N_S" depart="919.0" departLane="random" departSpeed="10" />
    <vehicle id="E_W_222" type="standard_car" route="E_W" depart="926.0" departLane="random" departSpeed="10" />
    <vehicle id="S_N_223" type="standard_car" route="S_N" depart="927.0" departLane="random" departSpeed="10" />
    <vehicle id="N_S_224" type="standard_car" route="N_S" depart="933.0" departLane="random" departSpeed="10" />
    <vehicle id="E_W_225" type="standard_car" route="E_W" depart="933.0" departLane="random" departSpeed="10" />
    <vehicle id="N_S_226" type="standard_car" route="N_S" depart="934.0" departLane="random" departSpeed="10" />
    <vehicle id="N_E_227" type="standard_car" route="N_E" depart="934.0" departLane="random" departSpeed="10" />
    <vehicle id="N_S_228" type="standard_car" route="N_S" depart="936.0" departLane="random" departSpeed="10" />
    <vehicle id="S_N_229" type="standard_car" route="S_N" depart="937.0" departLane="random" departSpeed="10" />
    <vehicle id="E_W_230" type="standard_car" route="E_W" depart="939.0" departLane="random" departSpeed="10" />
    <vehicle id="W_E_231" type="standard_car" route="W_E" depart="940.0" departLane="random" departSpeed="10" />
    <vehicle id="W_E_232" type="standard_car" route="W_E" depart="941.0" departLane="random" departSpeed="10" />
    <vehicle id="W_E_233" type="standard_car" route="W_E" depart="942.0" departLane="random" departSpeed="10" />
    <vehicle id="E_W_234" type="standard_car" route="E_W" depart="942.0" departLane="random" departSpeed="10" />
    <vehicle id="E_W_235" type="standard_car" route="E_W" depart="944.0" departLane="random" departSpeed="10" />
    <vehicle id="W_E_236" type="standard_car" route="W_E" depart="945.0" departLane="random" departSpeed="10" />
    <vehicle id="E_S_237" type="standard_car" route="E_S" depart="950.0" departLane="random" departSpeed="10" />
    <vehicle id="E_S_238" type="standard_car" route="E_S" depart="951.0" departLane="random" departSpeed="10" />
    <vehicle id="W_E_239" type="standard_car" route="W_E" depart="954.0" departLane="random" departSpeed="10" />
    <vehicle id="N_E_240" type="standard_car" route="N_E" depart="958.0" departLane="random" departSpeed="10" />
    <vehicle id="N_S_241" type="standard_car" route="N_S" depart="959.0" departLane="random" departSpeed="10" />
    <vehicle id="W_E_242" type="standard_car" route="W_E" depart="960.0" departLane="random" departSpeed="10" />
    <vehicle id="N_S_243" type="standard_car" route="N_S" depart="961.0" departLane="random" departSpeed="10" />
    <vehicle id="W_E_244" type="standard_car" route="W_E" depart="963.0" departLane="random" departSpeed="10" />
    <vehicle id="W_S_245" type="standard_car" route="W_S" depart="966.0" departLane="random" departSpeed="10" />
    <vehicle id="E_N_246" type="standard_car" route="E_N" depart="968.0" departLane="random" departSpeed="10" />
    <vehicle id="E_W_247" type="standard_car" route="E_W" depart="971.0" departLane="random" departSpeed="10" />
    <vehicle id="N_S_248" type="standard_car" route="N_S" depart="971.0" departLane="random" departSpeed="10" />
    <vehicle id="N_W_249" type="standard_car" route="N_W" depart="973.0" departLane="random" departSpeed="10" />
    <vehicle id="N_W_250" type="standard_car" route="N_W" depart="975.0" departLane="random" departSpeed="10" />
    <vehicle id="S_N_251" type="standard_car" route="S_N" depart="979.0" departLane="random" departSpeed="10" />
    <vehicle id="E_W_252" type="standard_car" route="E_W" depart="980.0" departLane="random" departSpeed="10" />
    <vehicle id="S_N_253" type="standard_car" route="S_N" depart="980.0" departLane="random" departSpeed="10" />
    <vehicle id="N_S_254" type="standard_car" route="N_S" depart="984.0" departLane="random" departSpeed="10" />
    <vehicle id="S_N_255" type="standard_car" route="S_N" depart="989.0" departLane="random" departSpeed="10" />
    <vehicle id="S_N_256" type="standard_car" route="S_N" depart="990.0" departLane="random" departSpeed="10" />
    <vehicle id="S_N_257" type="standard_car" route="S_N" depart="995.0" departLane="random" departSpeed="10" />
    <vehicle id="S_N_258" type="standard_car" route="S_N" depart="998.0" departLane="random" departSpeed="10" />
    <vehicle id="S_W_259" type="standard_car" route="S_W" depart="998.0" departLane="random" departSpeed="10" />