<?xml version="1.0" encoding="UTF-8"?>

<!-- generated on Tue 23 Mar 19:58:41 2021 by Eclipse SUMO netedit Version 1.8.0
<configuration xmlns:xsi="http://www.w3.org/2001/XMLSchema-instance" xsi:noNamespaceSchemaLocation="http://sumo.dlr.de/xsd/netconvertConfiguration.xsd">

    <input>
        <sumo-net-file value="simpleMap.net.xml"/>
    </input>

    <output>
        <output-file value="simpleMap.net.xml"/>
    </output>

    <processing>
        <geometry.min-radius.fix.railways value="false"/>
        <geometry.max-grade.fix value="false"/>
        <offset.disable-normalization value="true"/>
        <lefthand value="true"/>
    </processing>

    <junctions>
        <no-turnarounds value="true"/>
        <junctions.corner-detail value="5"/>
        <junctions.limit-turn-speed value="5.5"/>
        <rectangular-lane-cut value="false"/>
    </junctions>

    <pedestrian>
        <walkingareas value="false"/>
    </pedestrian>

    <netedit>
        <additional-files value="/Users/vibhamasti/Personal/College/04_MiniProject/mini-proj-traffic/simpleMap/det.add.xml"/>
    </netedit>

    <report>
        <aggregate-warnings value="5"/>
    </report>

</configuration>
-->

<additional xmlns:xsi="http://www.w3.org/2001/XMLSchema-instance" xsi:noNamespaceSchemaLocation="http://sumo.dlr.de/xsd/additional_file.xsd">
    <e3Detector id="e3Detector_0" pos="-1.56,-12.26" freq="100.00" file="e3Detector_0.xml">
        <detExit lane="-gneE5_0" pos="242.80"/>
        <detEntry lane="-gneE5_0" pos="237.30"/>
    </e3Detector>
    <e3Detector id="e3Detector_1" pos="12.73,-1.71" freq="100.00" file="e3Detector_1.xml">
        <detEntry lane="-gneE1_0" pos="236.27"/>
        <detExit lane="-gneE1_0" pos="242.80"/>
    </e3Detector>
    <e3Detector id="e3Detector_2" pos="1.38,13.25" freq="100.00" file="e3Detector_2.xml">
        <detExit lane="-gneE3_0" pos="242.78"/>
        <detEntry lane="-gneE3_0" pos="237.31"/>
    </e3Detector>
    <e3Detector id="e3Detector_3" pos="-13.17,1.63" freq="100.00" file="e3Detector_3.xml">
        <detEntry lane="gneE0_0" pos="236.24"/>
        <detExit lane="gneE0_0" pos="242.68"/>
    </e3Detector>
</additional>
