<configuration>
	<input>
		<net-file value="simpleMap.net.xml" />
		<route-files value="passenger_routes.rou.xml, bus_routes.rou.xml, truck_routes.rou.xml, delivery_routes.rou.xml" />
		<additional-files value="det.add.xml"/>
	</input>
</configuration>
