<?xml version="1.0" encoding="UTF-8"?>

<!-- generated on Tue 23 Mar 19:57:47 2021 by Eclipse SUMO netedit Version 1.8.0
<configuration xmlns:xsi="http://www.w3.org/2001/XMLSchema-instance" xsi:noNamespaceSchemaLocation="http://sumo.dlr.de/xsd/netconvertConfiguration.xsd">

    <input>
        <sumo-net-file value="simpleMap.net.xml"/>
    </input>

    <output>
        <output-file value="simpleMap.net.xml"/>
    </output>

    <processing>
        <geometry.min-radius.fix.railways value="false"/>
        <geometry.max-grade.fix value="false"/>
        <offset.disable-normalization value="true"/>
        <lefthand value="true"/>
    </processing>

    <junctions>
        <no-turnarounds value="true"/>
        <junctions.corner-detail value="5"/>
        <junctions.limit-turn-speed value="5.5"/>
        <rectangular-lane-cut value="false"/>
    </junctions>

    <pedestrian>
        <walkingareas value="false"/>
    </pedestrian>

    <netedit>
        <additional-files value="/Users/vibhamasti/Personal/College/04_MiniProject/mini-proj-traffic/simpleMap/det.add.xml"/>
    </netedit>

    <report>
        <aggregate-warnings value="5"/>
    </report>

</configuration>
-->

<net version="1.6" junctionCornerDetail="5" lefthand="true" limitTurnSpeed="5.50" xmlns:xsi="http://www.w3.org/2001/XMLSchema-instance" xsi:noNamespaceSchemaLocation="http://sumo.dlr.de/xsd/net_file.xsd">

    <location netOffset="0.00,0.00" convBoundary="-250.00,-250.00,250.00,250.00" origBoundary="-10000000000.00,-10000000000.00,10000000000.00,10000000000.00" projParameter="!"/>

    <edge id=":t0_0" function="internal">
        <lane id=":t0_0_0" index="0" speed="6.51" length="9.03" shape="-1.60,-7.20 -1.95,-4.75 -3.00,-3.00 -4.75,-1.95 -7.20,-1.60"/>
    </edge>
    <edge id=":t0_1" function="internal">
        <lane id=":t0_1_0" index="0" speed="13.89" length="14.40" shape="-1.60,-7.20 -1.60,7.20"/>
    </edge>
    <edge id=":t0_2" function="internal">
        <lane id=":t0_2_0" index="0" speed="8.00" length="14.19" shape="-1.60,-7.20 -1.05,-3.35 0.60,-0.60 3.35,1.05 7.20,1.60"/>
    </edge>
    <edge id=":t0_3" function="internal">
        <lane id=":t0_3_0" index="0" speed="6.51" length="9.03" shape="7.20,-1.60 4.75,-1.95 3.00,-3.00 1.95,-4.75 1.60,-7.20"/>
    </edge>
    <edge id=":t0_4" function="internal">
        <lane id=":t0_4_0" index="0" speed="13.89" length="14.40" shape="7.20,-1.60 -7.20,-1.60"/>
    </edge>
    <edge id=":t0_5" function="internal">
        <lane id=":t0_5_0" index="0" speed="8.00" length="14.19" shape="7.20,-1.60 3.35,-1.05 0.60,0.60 -1.05,3.35 -1.60,7.20"/>
    </edge>
    <edge id=":t0_6" function="internal">
        <lane id=":t0_6_0" index="0" speed="6.51" length="9.03" shape="1.60,7.20 1.95,4.75 3.00,3.00 4.75,1.95 7.20,1.60"/>
    </edge>
    <edge id=":t0_7" function="internal">
        <lane id=":t0_7_0" index="0" speed="13.89" length="14.40" shape="1.60,7.20 1.60,-7.20"/>
    </edge>
    <edge id=":t0_8" function="internal">
        <lane id=":t0_8_0" index="0" speed="8.00" length="14.19" shape="1.60,7.20 1.05,3.35 -0.60,0.60 -3.35,-1.05 -7.20,-1.60"/>
    </edge>
    <edge id=":t0_9" function="internal">
        <lane id=":t0_9_0" index="0" speed="6.51" length="9.03" shape="-7.20,1.60 -4.75,1.95 -3.00,3.00 -1.95,4.75 -1.60,7.20"/>
    </edge>
    <edge id=":t0_10" function="internal">
        <lane id=":t0_10_0" index="0" speed="13.89" length="14.40" shape="-7.20,1.60 7.20,1.60"/>
    </edge>
    <edge id=":t0_11" function="internal">
        <lane id=":t0_11_0" index="0" speed="8.00" length="14.19" shape="-7.20,1.60 -3.35,1.05 -0.60,-0.60 1.05,-3.35 1.60,-7.20"/>
    </edge>

    <edge id="-gneE0" from="t0" to="gneJ0" priority="-1">
        <lane id="-gneE0_0" index="0" speed="13.89" length="242.80" shape="-7.20,-1.60 -250.00,-1.60"/>
    </edge>
    <edge id="-gneE1" from="gneJ2" to="t0" priority="-1">
        <lane id="-gneE1_0" index="0" speed="13.89" length="242.80" shape="250.00,-1.60 7.20,-1.60"/>
    </edge>
    <edge id="-gneE3" from="gneJ5" to="t0" priority="-1">
        <lane id="-gneE3_0" index="0" speed="13.89" length="242.80" shape="1.60,250.00 1.60,7.20"/>
    </edge>
    <edge id="-gneE5" from="gneJ8" to="t0" priority="-1">
        <lane id="-gneE5_0" index="0" speed="13.89" length="242.80" shape="-1.60,-250.00 -1.60,-7.20"/>
    </edge>
    <edge id="gneE0" from="gneJ0" to="t0" priority="-1">
        <lane id="gneE0_0" index="0" speed="13.89" length="242.80" shape="-250.00,1.60 -7.20,1.60"/>
    </edge>
    <edge id="gneE1" from="t0" to="gneJ2" priority="-1">
        <lane id="gneE1_0" index="0" speed="13.89" length="242.80" shape="7.20,1.60 250.00,1.60"/>
    </edge>
    <edge id="gneE3" from="t0" to="gneJ5" priority="-1">
        <lane id="gneE3_0" index="0" speed="13.89" length="242.80" shape="-1.60,7.20 -1.60,250.00"/>
    </edge>
    <edge id="gneE5" from="t0" to="gneJ8" priority="-1">
        <lane id="gneE5_0" index="0" speed="13.89" length="242.80" shape="1.60,-7.20 1.60,-250.00"/>
    </edge>

    <tlLogic id="t0" type="static" programID="0" offset="0">
        <phase duration="30" state="GGgrrrrrrrrr" name="g0"/>
        <phase duration="3"  state="yyyrrrrrrrrr" name="y0"/>
        <phase duration="30" state="rrrGGgrrrrrr" name="g1"/>
        <phase duration="3"  state="rrryyyrrrrrr" name="y1"/>
        <phase duration="30" state="rrrrrrGGgrrr" name="g2"/>
        <phase duration="3"  state="rrrrrryyyrrr" name="y2"/>
        <phase duration="30" state="rrrrrrrrrGGg" name="g3"/>
        <phase duration="3"  state="rrrrrrrrryyy" name="y3"/>
    </tlLogic>

    <junction id="gneJ0" type="dead_end" x="-250.00" y="0.00" incLanes="-gneE0_0" intLanes="" shape="-250.00,-0.00 -250.00,-3.20 -250.00,-0.00"/>
    <junction id="gneJ2" type="dead_end" x="250.00" y="0.00" incLanes="gneE1_0" intLanes="" shape="250.00,-0.00 250.00,3.20 250.00,-0.00"/>
    <junction id="gneJ5" type="dead_end" x="0.00" y="250.00" incLanes="gneE3_0" intLanes="" shape="0.00,250.00 -3.20,250.00 0.00,250.00"/>
    <junction id="gneJ8" type="dead_end" x="0.00" y="-250.00" incLanes="gneE5_0" intLanes="" shape="0.00,-250.00 3.20,-250.00 0.00,-250.00"/>
    <junction id="t0" type="traffic_light" x="0.00" y="0.00" incLanes="-gneE5_0 -gneE1_0 -gneE3_0 gneE0_0" intLanes=":t0_0_0 :t0_1_0 :t0_2_0 :t0_3_0 :t0_4_0 :t0_5_0 :t0_6_0 :t0_7_0 :t0_8_0 :t0_9_0 :t0_10_0 :t0_11_0" shape="-3.20,-7.20 3.20,-7.20 3.64,-4.98 4.20,-4.20 4.98,-3.64 5.98,-3.31 7.20,-3.20 7.20,3.20 4.98,3.64 4.20,4.20 3.64,4.98 3.31,5.98 3.20,7.20 -3.20,7.20 -3.64,4.98 -4.20,4.20 -4.98,3.64 -5.98,3.31 -7.20,3.20 -7.20,-3.20 -4.98,-3.64 -4.20,-4.20 -3.64,-4.98 -3.31,-5.98" fringe="outer">
        <request index="0"  response="000000000000" foes="000100010000" cont="0"/>
        <request index="1"  response="000000000000" foes="111100110000" cont="0"/>
        <request index="2"  response="000011000000" foes="110011110000" cont="0"/>
        <request index="3"  response="000010000000" foes="100010000000" cont="0"/>
        <request index="4"  response="000110000111" foes="100110000111" cont="0"/>
        <request index="5"  response="011110000110" foes="011110000110" cont="0"/>
        <request index="6"  response="000000000000" foes="010000000100" cont="0"/>
        <request index="7"  response="000000000000" foes="110000111100" cont="0"/>
        <request index="8"  response="000000000011" foes="110000110011" cont="0"/>
        <request index="9"  response="000000000010" foes="000000100010" cont="0"/>
        <request index="10" response="000111000110" foes="000111100110" cont="0"/>
        <request index="11" response="000110011110" foes="000110011110" cont="0"/>
    </junction>

    <connection from="-gneE1" to="gneE5" fromLane="0" toLane="0" via=":t0_3_0" tl="t0" linkIndex="3" dir="l" state="o"/>
    <connection from="-gneE1" to="-gneE0" fromLane="0" toLane="0" via=":t0_4_0" tl="t0" linkIndex="4" dir="s" state="o"/>
    <connection from="-gneE1" to="gneE3" fromLane="0" toLane="0" via=":t0_5_0" tl="t0" linkIndex="5" dir="r" state="o"/>
    <connection from="-gneE3" to="gneE1" fromLane="0" toLane="0" via=":t0_6_0" tl="t0" linkIndex="6" dir="l" state="O"/>
    <connection from="-gneE3" to="gneE5" fromLane="0" toLane="0" via=":t0_7_0" tl="t0" linkIndex="7" dir="s" state="O"/>
    <connection from="-gneE3" to="-gneE0" fromLane="0" toLane="0" via=":t0_8_0" tl="t0" linkIndex="8" dir="r" state="o"/>
    <connection from="-gneE5" to="-gneE0" fromLane="0" toLane="0" via=":t0_0_0" tl="t0" linkIndex="0" dir="l" state="O"/>
    <connection from="-gneE5" to="gneE3" fromLane="0" toLane="0" via=":t0_1_0" tl="t0" linkIndex="1" dir="s" state="O"/>
    <connection from="-gneE5" to="gneE1" fromLane="0" toLane="0" via=":t0_2_0" tl="t0" linkIndex="2" dir="r" state="o"/>
    <connection from="gneE0" to="gneE3" fromLane="0" toLane="0" via=":t0_9_0" tl="t0" linkIndex="9" dir="l" state="o"/>
    <connection from="gneE0" to="gneE1" fromLane="0" toLane="0" via=":t0_10_0" tl="t0" linkIndex="10" dir="s" state="o"/>
    <connection from="gneE0" to="gneE5" fromLane="0" toLane="0" via=":t0_11_0" tl="t0" linkIndex="11" dir="r" state="o"/>

    <connection from=":t0_0" to="-gneE0" fromLane="0" toLane="0" dir="l" state="M"/>
    <connection from=":t0_1" to="gneE3" fromLane="0" toLane="0" dir="s" state="M"/>
    <connection from=":t0_2" to="gneE1" fromLane="0" toLane="0" dir="r" state="M"/>
    <connection from=":t0_3" to="gneE5" fromLane="0" toLane="0" dir="l" state="M"/>
    <connection from=":t0_4" to="-gneE0" fromLane="0" toLane="0" dir="s" state="M"/>
    <connection from=":t0_5" to="gneE3" fromLane="0" toLane="0" dir="r" state="M"/>
    <connection from=":t0_6" to="gneE1" fromLane="0" toLane="0" dir="l" state="M"/>
    <connection from=":t0_7" to="gneE5" fromLane="0" toLane="0" dir="s" state="M"/>
    <connection from=":t0_8" to="-gneE0" fromLane="0" toLane="0" dir="r" state="M"/>
    <connection from=":t0_9" to="gneE3" fromLane="0" toLane="0" dir="l" state="M"/>
    <connection from=":t0_10" to="gneE1" fromLane="0" toLane="0" dir="s" state="M"/>
    <connection from=":t0_11" to="gneE5" fromLane="0" toLane="0" dir="r" state="M"/>

</net>
