<?xml version="1.0" encoding="UTF-8"?>
<!-- generated on 2021-03-22 13:04:59.933052 by $Id$ UNKNOWN
  options: -n simpleMap.net.xml -r truck_routes.rou.xml -o truck_trips.xml -e 50 -l -p 15 <doubleminus>vehicle-class truck <doubleminus>trip-attributes=color="179,253,183"
-->
<routes xmlns:xsi="http://www.w3.org/2001/XMLSchema-instance" xsi:noNamespaceSchemaLocation="http://sumo.dlr.de/xsd/routes_file.xsd">
    <vType id="truck" vClass="truck" color="179,253,183"/>
    <trip id="0" depart="0.00" from="-gneE5" to="-gneE0" type="truck"/>
    <trip id="1" depart="15.00" from="-gneE3" to="-gneE0" type="truck"/>
    <trip id="2" depart="30.00" from="-gneE5" to="gneE3" type="truck"/>
    <trip id="3" depart="45.00" from="gneE0" to="-gneE0" type="truck"/>
</routes>
